<configuration><input><net-file value="sim_9.net.xml" /><route-files value="sim_9.rou.xml" /></input><time><begin value="0" /></time></configuration>