<configuration><input><net-file value="sim_13.net.xml" /><route-files value="sim_13.rou.xml" /></input><time><begin value="0" /></time></configuration>