<configuration><input><net-file value="sim_14.net.xml" /><route-files value="sim_14.rou.xml" /></input><time><begin value="0" /></time></configuration>