<?xml version="1.0" encoding="UTF-8"?>

<!-- generated on 2023-06-26 02:37:27 by Eclipse SUMO netconvert Version 1.16.0
<configuration xmlns:xsi="http://www.w3.org/2001/XMLSchema-instance" xsi:noNamespaceSchemaLocation="http://sumo.dlr.de/xsd/netconvertConfiguration.xsd">

    <input>
        <node-files value="data/simulationConfigurations/optimized\optimized.nod.xml"/>
        <edge-files value="data/simulationConfigurations/optimized\optimized.edg.xml"/>
    </input>

    <output>
        <output-file value="data/simulationConfigurations/optimized\optimized.net.xml"/>
    </output>

</configuration>
-->

<net version="1.16" junctionCornerDetail="5" limitTurnSpeed="5.50" xmlns:xsi="http://www.w3.org/2001/XMLSchema-instance" xsi:noNamespaceSchemaLocation="http://sumo.dlr.de/xsd/net_file.xsd">

    <location netOffset="-53.45,-18.03" convBoundary="0.00,0.00,995.15,791.76" origBoundary="53.45,18.03,1048.60,809.79" projParameter="!"/>

    <edge id=":V0001_0" function="internal">
        <lane id=":V0001_0_0" index="0" speed="11.71" length="35.41" shape="1000.04,670.22 999.32,674.83 993.50,679.14 983.80,683.22 971.42,687.12"/>
    </edge>
    <edge id=":V0001_1" function="internal">
        <lane id=":V0001_1_0" index="0" speed="10.33" length="36.07" shape="996.88,671.01 997.79,679.10 992.24,682.96 982.58,683.63 971.20,682.14"/>
        <lane id=":V0001_1_1" index="1" speed="9.31" length="28.97" shape="993.71,671.80 994.13,677.69 989.32,680.25 981.22,680.38 971.80,679.00"/>
        <lane id=":V0001_1_2" index="2" speed="8.78" length="25.61" shape="993.71,671.80 993.53,675.92 988.82,677.50 981.22,677.25 972.41,675.86"/>
    </edge>
    <edge id=":V0001_4" function="internal">
        <lane id=":V0001_4_0" index="0" speed="7.74" length="27.11" shape="993.71,671.80 989.13,662.76 986.78,659.95 986.66,663.37 988.78,673.02"/>
        <lane id=":V0001_4_1" index="1" speed="4.99" length="10.04" shape="993.71,671.80 992.01,668.45 991.14,667.41 991.10,668.67 991.88,672.25"/>
    </edge>
    <edge id=":V0003_0" function="internal">
        <lane id=":V0003_0_0" index="0" speed="7.18" length="19.71" shape="302.93,550.83 299.92,546.37 299.99,541.68 302.74,538.12 307.77,537.08"/>
        <lane id=":V0003_0_1" index="1" speed="6.44" length="15.53" shape="302.93,550.83 300.66,547.36 300.95,543.75 303.35,541.04 307.42,540.26"/>
        <lane id=":V0003_0_2" index="2" speed="5.48" length="10.74" shape="304.97,548.36 302.39,545.82 301.88,544.15 303.44,543.35 307.06,543.44"/>
    </edge>
    <edge id=":V0004_0" function="internal">
        <lane id=":V0004_0_0" index="0" speed="15.00" length="62.33" shape="611.05,790.67 603.10,789.68 592.76,782.84 580.03,770.14 564.90,751.58"/>
    </edge>
    <edge id=":V0004_1" function="internal">
        <lane id=":V0004_1_0" index="0" speed="15.00" length="60.48" shape="611.05,790.67 604.08,789.04 596.98,780.21 589.73,764.17 582.34,740.92"/>
    </edge>
    <edge id=":V0004_2" function="internal">
        <lane id=":V0004_2_0" index="0" speed="6.69" length="16.60" shape="611.05,790.67 606.65,790.58 603.72,788.15 602.82,784.37 604.52,780.21"/>
        <lane id=":V0004_2_1" index="1" speed="6.90" length="17.75" shape="611.05,790.67 605.56,791.64 603.05,790.56 603.55,787.41 607.03,782.20"/>
    </edge>
    <edge id=":V0004_4" function="internal">
        <lane id=":V0004_4_0" index="0" speed="12.45" length="57.84" shape="609.53,784.20 602.68,785.76 592.82,779.13 580.80,766.40 567.45,749.65"/>
    </edge>
    <edge id=":V0004_5" function="internal">
        <lane id=":V0004_5_0" index="0" speed="12.45" length="54.65" shape="609.53,784.20 603.73,784.96 597.54,775.66 591.32,759.60 585.43,740.06"/>
    </edge>
    <edge id=":V0004_6" function="internal">
        <lane id=":V0004_6_0" index="0" speed="3.65" length="4.67" shape="609.53,784.20 608.15,784.64 607.28,784.45 606.90,783.64 607.03,782.20"/>
    </edge>
    <edge id=":V0004_7" function="internal">
        <lane id=":V0004_7_0" index="0" speed="5.78" length="13.21" shape="575.10,743.84 578.16,747.40 579.87,748.24 580.24,746.37 579.26,741.78"/>
    </edge>
    <edge id=":V0004_8" function="internal">
        <lane id=":V0004_8_0" index="0" speed="12.60" length="43.68" shape="575.10,743.84 579.47,749.66 588.55,761.62 597.64,773.28 602.02,778.21"/>
        <lane id=":V0004_8_1" index="1" speed="13.14" length="47.63" shape="572.55,745.78 585.42,762.24 595.04,773.47 601.41,779.46 604.52,780.21"/>
        <lane id=":V0004_8_2" index="2" speed="13.77" length="52.46" shape="570.00,747.71 584.12,765.41 595.00,777.06 602.63,782.65 607.03,782.20"/>
    </edge>
    <edge id=":V0004_11" function="internal">
        <lane id=":V0004_11_0" index="0" speed="3.65" length="4.67" shape="570.00,747.71 570.09,749.15 569.69,749.95 568.82,750.12 567.45,749.65"/>
    </edge>
    <edge id=":V0005_0" function="internal">
        <lane id=":V0005_0_0" index="0" speed="6.55" length="7.86" shape="659.39,583.01 661.50,582.96 663.19,582.29 664.48,581.00 665.37,579.09"/>
        <lane id=":V0005_0_1" index="1" speed="7.39" length="10.26" shape="659.39,583.01 662.90,583.15 665.58,582.71 667.42,581.66 668.43,580.03"/>
    </edge>
    <edge id=":V0006_0" function="internal">
        <lane id=":V0006_0_0" index="0" speed="5.82" length="10.75" shape="763.67,230.28 765.81,228.29 766.06,226.52 764.43,224.95 760.91,223.58"/>
    </edge>
    <edge id=":V0006_1" function="internal">
        <lane id=":V0006_1_0" index="0" speed="8.53" length="22.09" shape="763.67,230.28 768.87,225.74 770.69,221.45 769.14,217.42 764.21,213.64"/>
    </edge>
    <edge id=":V0006_2" function="internal">
        <lane id=":V0006_2_0" index="0" speed="8.52" length="16.52" shape="772.39,230.83 772.51,227.66 770.78,224.88 767.20,222.49 761.78,220.50"/>
        <lane id=":V0006_2_1" index="1" speed="9.08" length="18.90" shape="772.39,230.83 772.91,226.32 771.46,222.58 768.04,219.61 762.65,217.42"/>
    </edge>
    <edge id=":V0006_4" function="internal">
        <lane id=":V0006_4_0" index="0" speed="10.96" length="23.19" shape="775.45,231.77 775.92,226.82 774.21,222.14 770.30,217.75 764.21,213.64"/>
    </edge>
    <edge id=":V0007_0" function="internal">
        <lane id=":V0007_0_0" index="0" speed="12.86" length="80.63" shape="20.81,10.88 49.87,18.45 60.11,19.42 51.52,13.77 24.10,1.50"/>
        <lane id=":V0007_0_1" index="1" speed="7.84" length="28.58" shape="21.87,7.85 32.17,10.54 35.80,10.88 32.75,8.88 23.04,4.53"/>
        <lane id=":V0007_0_2" index="2" speed="3.08" length="2.55" shape="21.87,7.85 22.79,8.09 23.11,8.12 22.84,7.94 21.98,7.55"/>
    </edge>
    <edge id=":V0007_3" function="internal">
        <lane id=":V0007_3_0" index="0" speed="5.14" length="8.93" shape="21.87,7.85 18.89,7.30 17.40,7.75 17.40,9.20 18.90,11.66"/>
        <lane id=":V0007_3_1" index="1" speed="6.35" length="14.57" shape="21.87,7.85 16.81,6.87 14.20,7.51 14.05,9.75 16.36,13.60"/>
        <lane id=":V0007_3_2" index="2" speed="7.36" length="20.23" shape="21.87,7.85 14.73,6.45 11.00,7.27 10.70,10.29 13.81,15.53"/>
    </edge>
    <edge id=":V0009_0" function="internal">
        <lane id=":V0009_0_0" index="0" speed="5.55" length="9.42" shape="920.54,403.49 919.48,400.78 918.09,399.65 916.35,400.10 914.26,402.13"/>
    </edge>
    <edge id=":V0009_1" function="internal">
        <lane id=":V0009_1_0" index="0" speed="3.65" length="4.67" shape="911.76,400.14 913.14,399.70 914.01,399.88 914.39,400.69 914.26,402.13"/>
    </edge>
    <edge id=":V0011_0" function="internal">
        <lane id=":V0011_0_0" index="0" speed="7.18" length="5.92" shape="528.71,703.93 527.60,702.72 526.40,701.86 525.09,701.36 523.70,701.22"/>
    </edge>
    <edge id=":V0011_1" function="internal">
        <lane id=":V0011_1_0" index="0" speed="7.72" length="19.33" shape="531.26,702.00 527.52,696.07 526.57,691.78 528.40,689.14 533.00,688.13"/>
        <lane id=":V0011_1_1" index="1" speed="6.90" length="15.13" shape="531.26,702.00 528.42,697.44 527.78,694.15 529.34,692.11 533.10,691.33"/>
    </edge>
    <edge id=":V0011_3" function="internal">
        <lane id=":V0011_3_0" index="0" speed="13.00" length="9.70" shape="533.30,697.73 523.60,698.03"/>
        <lane id=":V0011_3_1" index="1" speed="13.00" length="9.70" shape="533.20,694.53 523.50,694.83"/>
    </edge>
    <edge id=":V0011_5" function="internal">
        <lane id=":V0011_5_0" index="0" speed="3.65" length="4.67" shape="533.20,694.53 531.98,693.76 531.55,692.98 531.93,692.17 533.10,691.33"/>
    </edge>
    <edge id=":V0012_0" function="internal">
        <lane id=":V0012_0_0" index="0" speed="19.00" length="18.93" shape="734.69,636.34 729.33,634.80 725.88,633.01 722.42,631.22 717.06,629.67"/>
        <lane id=":V0012_0_1" index="1" speed="19.00" length="18.93" shape="735.30,633.20 729.94,631.66 726.48,629.87 723.03,628.08 717.67,626.53"/>
    </edge>
    <edge id=":V0012_2" function="internal">
        <lane id=":V0012_2_0" index="0" speed="5.71" length="9.20" shape="735.90,630.06 733.31,629.18 732.05,627.81 732.12,625.96 733.52,623.60"/>
    </edge>
    <edge id=":V0012_3" function="internal">
        <lane id=":V0012_3_0" index="0" speed="5.76" length="9.38" shape="719.28,636.33 720.75,633.89 720.88,631.97 719.65,630.56 717.06,629.67"/>
        <lane id=":V0012_3_1" index="1" speed="7.46" length="16.70" shape="721.78,638.33 724.37,634.02 724.55,630.61 722.32,628.12 717.67,626.53"/>
    </edge>
    <edge id=":V0012_5" function="internal">
        <lane id=":V0012_5_0" index="0" speed="6.50" length="18.83" shape="721.78,638.33 733.52,623.60"/>
    </edge>
    <edge id=":V0013_0" function="internal">
        <lane id=":V0013_0_0" index="0" speed="18.95" length="12.74" shape="539.71,575.51 536.30,563.24"/>
    </edge>
    <edge id=":V0013_1" function="internal">
        <lane id=":V0013_1_0" index="0" speed="5.84" length="9.13" shape="539.71,575.51 539.36,572.87 540.02,571.09 541.67,570.16 544.34,570.09"/>
    </edge>
    <edge id=":V0013_2" function="internal">
        <lane id=":V0013_2_0" index="0" speed="5.84" length="9.13" shape="531.68,568.67 534.34,568.59 536.00,567.66 536.65,565.88 536.30,563.24"/>
    </edge>
    <edge id=":V0013_3" function="internal">
        <lane id=":V0013_3_0" index="0" speed="9.50" length="12.74" shape="531.68,568.67 544.34,570.09"/>
    </edge>
    <edge id=":V0014_0" function="internal">
        <lane id=":V0014_0_0" index="0" speed="9.86" length="7.78" shape="740.43,321.92 742.48,320.81 743.97,320.01 745.07,318.91 745.95,316.89"/>
    </edge>
    <edge id=":V0014_1" function="internal">
        <lane id=":V0014_1_0" index="0" speed="15.00" length="7.86" shape="743.64,324.40 745.95,316.89"/>
        <lane id=":V0014_1_1" index="1" speed="15.00" length="7.86" shape="746.69,325.34 749.00,317.83"/>
    </edge>
    <edge id=":V0016_0" function="internal">
        <lane id=":V0016_0_0" index="0" speed="7.50" length="18.87" shape="879.06,441.14 880.97,437.94 882.59,434.15 884.73,429.70 888.22,424.52"/>
        <lane id=":V0016_0_1" index="1" speed="7.50" length="18.87" shape="879.06,441.14 890.72,426.52"/>
    </edge>
    <edge id=":V0016_2" function="internal">
        <lane id=":V0016_2_0" index="0" speed="7.47" length="16.55" shape="879.06,441.14 883.06,437.00 886.50,435.31 889.40,436.05 891.74,439.24"/>
        <lane id=":V0016_2_1" index="1" speed="6.66" length="12.83" shape="879.06,441.14 882.04,438.13 884.67,437.04 886.93,437.86 888.85,440.60"/>
        <lane id=":V0016_2_2" index="2" speed="5.74" length="9.18" shape="879.06,441.14 881.02,439.27 882.83,438.78 884.47,439.67 885.95,441.96"/>
    </edge>
    <edge id=":V0017_0" function="internal">
        <lane id=":V0017_0_0" index="0" speed="9.00" length="5.29" shape="485.59,699.20 483.69,699.21 482.38,698.97 481.19,698.35 479.70,697.19"/>
        <lane id=":V0017_0_1" index="1" speed="7.31" length="5.29" shape="485.49,696.00 484.28,696.01 483.44,695.86 482.69,695.46 481.74,694.72"/>
    </edge>
    <edge id=":V0018_0" function="internal">
        <lane id=":V0018_0_0" index="0" speed="11.66" length="18.25" shape="415.09,126.94 413.62,124.55 410.57,122.27 405.94,120.11 399.74,118.08"/>
    </edge>
    <edge id=":V0018_1" function="internal">
        <lane id=":V0018_1_0" index="0" speed="17.45" length="19.17" shape="415.09,126.94 413.17,123.78 410.07,120.83 406.74,117.07 404.15,111.48"/>
    </edge>
    <edge id=":V0018_2" function="internal">
        <lane id=":V0018_2_0" index="0" speed="12.08" length="19.61" shape="415.09,126.94 413.29,123.00 410.28,119.70 406.05,117.03 400.61,115.00"/>
    </edge>
    <edge id=":V0018_3" function="internal">
        <lane id=":V0018_3_0" index="0" speed="17.50" length="18.17" shape="415.09,126.94 413.64,123.59 411.57,120.25 409.29,116.17 407.23,110.62"/>
    </edge>
    <edge id=":V0018_4" function="internal">
        <lane id=":V0018_4_0" index="0" speed="23.50" length="19.63" shape="418.62,123.42 399.74,118.08"/>
        <lane id=":V0018_4_1" index="1" speed="23.50" length="19.63" shape="419.50,120.34 400.61,115.00"/>
    </edge>
    <edge id=":V0018_6" function="internal">
        <lane id=":V0018_6_0" index="0" speed="10.49" length="14.66" shape="419.50,120.34 416.38,118.96 413.81,116.74 411.79,113.67 410.31,109.76"/>
    </edge>
    <edge id=":V0019_0" function="internal">
        <lane id=":V0019_0_0" index="0" speed="9.45" length="23.50" shape="661.82,684.15 670.67,683.65 677.41,682.76 682.05,681.49 684.58,679.83"/>
        <lane id=":V0019_0_1" index="1" speed="9.45" length="26.21" shape="661.92,687.35 671.48,686.76 678.85,685.64 684.06,683.99 687.08,681.83"/>
    </edge>
    <edge id=":V0019_2" function="internal">
        <lane id=":V0019_2_0" index="0" speed="3.65" length="4.67" shape="661.92,687.35 663.15,688.11 663.57,688.90 663.20,689.71 662.02,690.55"/>
    </edge>
    <edge id=":V0019_3" function="internal">
        <lane id=":V0019_3_0" index="0" speed="5.52" length="9.52" shape="664.93,699.34 666.49,696.81 666.55,695.03 665.09,694.01 662.12,693.74"/>
        <lane id=":V0019_3_1" index="1" speed="6.52" length="13.97" shape="664.93,699.34 667.47,695.38 667.83,692.59 666.02,690.98 662.02,690.55"/>
    </edge>
    <edge id=":V0019_5" function="internal">
        <lane id=":V0019_5_0" index="0" speed="13.50" length="27.51" shape="667.43,701.34 684.58,679.83"/>
        <lane id=":V0019_5_1" index="1" speed="13.50" length="27.51" shape="669.93,703.34 687.08,681.83"/>
    </edge>
    <edge id=":V0021_0" function="internal">
        <lane id=":V0021_0_0" index="0" speed="6.32" length="9.04" shape="410.50,548.61 413.01,548.54 414.82,547.66 415.93,545.98 416.34,543.51"/>
        <lane id=":V0021_0_1" index="1" speed="7.85" length="14.55" shape="410.14,551.79 414.18,551.67 417.09,550.26 418.87,547.56 419.54,543.58"/>
        <lane id=":V0021_0_2" index="2" speed="9.12" length="20.05" shape="409.78,554.97 415.35,554.80 419.36,552.85 421.82,549.14 422.74,543.65"/>
    </edge>
    <edge id=":V0021_3" function="internal">
        <lane id=":V0021_3_0" index="0" speed="8.50" length="18.22" shape="409.78,554.97 427.89,557.01"/>
    </edge>
    <edge id=":V0022_0" function="internal">
        <lane id=":V0022_0_0" index="0" speed="7.34" length="9.61" shape="568.54,703.19 567.48,700.36 566.09,698.35 564.38,697.18 562.34,696.83"/>
        <lane id=":V0022_0_1" index="1" speed="8.71" length="13.89" shape="571.62,702.34 570.11,698.45 568.04,695.70 565.42,694.10 562.25,693.63"/>
    </edge>
    <edge id=":V0022_2" function="internal">
        <lane id=":V0022_2_0" index="0" speed="12.45" length="13.65" shape="574.71,701.48 571.05,688.33"/>
    </edge>
    <edge id=":V0022_3" function="internal">
        <lane id=":V0022_3_0" index="0" speed="13.00" length="21.12" shape="583.45,696.18 562.34,696.83"/>
        <lane id=":V0022_3_1" index="1" speed="13.00" length="21.12" shape="583.35,692.98 562.25,693.63"/>
    </edge>
    <edge id=":V0022_5" function="internal">
        <lane id=":V0022_5_0" index="0" speed="8.75" length="14.04" shape="583.35,692.98 578.49,692.82 574.82,691.99 572.34,690.49 571.05,688.33"/>
    </edge>
    <edge id=":V0022_6" function="internal">
        <lane id=":V0022_6_0" index="0" speed="9.04" length="7.59" shape="577.39,686.57 577.29,690.86 575.21,693.43"/>
        <lane id=":V0022_6_1" index="1" speed="7.77" length="2.37" shape="574.31,687.43 574.07,689.79"/>
    </edge>
    <edge id=":V0022_8" function="internal">
        <lane id=":V0022_8_0" index="0" speed="3.74" length="1.63" shape="574.31,687.43 573.83,688.87 573.75,688.95"/>
    </edge>
    <edge id=":V0022_9" function="internal">
        <lane id=":V0022_9_0" index="0" speed="9.04" length="13.57" shape="575.21,693.43 574.75,694.00 569.77,695.99 562.34,696.83"/>
    </edge>
    <edge id=":V0022_10" function="internal">
        <lane id=":V0022_10_0" index="0" speed="7.77" length="12.94" shape="574.07,689.79 574.05,689.99 571.96,691.87 568.02,693.09 562.25,693.63"/>
    </edge>
    <edge id=":V0022_11" function="internal">
        <lane id=":V0022_11_0" index="0" speed="3.74" length="3.29" shape="573.75,688.95 573.13,689.50 572.21,689.32 571.05,688.33"/>
    </edge>
    <edge id=":V0023_0" function="internal">
        <lane id=":V0023_0_0" index="0" speed="9.15" length="4.91" shape="477.66,207.34 477.18,204.35 477.94,202.63"/>
        <lane id=":V0023_0_1" index="1" speed="8.71" length="4.97" shape="477.66,207.34 477.82,205.60 479.71,203.27 479.89,203.13"/>
    </edge>
    <edge id=":V0023_2" function="internal">
        <lane id=":V0023_2_0" index="0" speed="5.65" length="2.83" shape="480.53,205.93 479.94,203.71 480.32,203.34"/>
    </edge>
    <edge id=":V0023_6" function="internal">
        <lane id=":V0023_6_0" index="0" speed="9.15" length="12.67" shape="477.94,202.63 478.59,201.15 481.88,197.74 487.06,194.12"/>
    </edge>
    <edge id=":V0023_7" function="internal">
        <lane id=":V0023_7_0" index="0" speed="8.71" length="10.85" shape="479.89,203.13 483.35,200.36 488.72,196.86"/>
    </edge>
    <edge id=":V0023_8" function="internal">
        <lane id=":V0023_8_0" index="0" speed="5.65" length="8.02" shape="480.32,203.34 480.96,202.73 483.59,203.00 487.82,204.51"/>
    </edge>
    <edge id=":V0023_3" function="internal">
        <lane id=":V0023_3_0" index="0" speed="10.86" length="14.13" shape="472.06,194.37 474.76,194.97 477.88,194.68 481.43,193.48 485.40,191.39"/>
    </edge>
    <edge id=":V0023_4" function="internal">
        <lane id=":V0023_4_0" index="0" speed="19.00" length="18.47" shape="472.06,194.37 489.07,201.56"/>
        <lane id=":V0023_4_1" index="1" speed="19.00" length="18.47" shape="470.81,197.32 487.82,204.51"/>
    </edge>
    <edge id=":V0026_0" function="internal">
        <lane id=":V0026_0_0" index="0" speed="10.03" length="12.83" shape="675.98,280.58 679.87,281.95 683.22,282.54 686.03,282.34 688.32,281.36"/>
    </edge>
    <edge id=":V0026_1" function="internal">
        <lane id=":V0026_1_0" index="0" speed="6.42" length="13.60" shape="674.73,283.53 678.75,285.74 680.32,287.94 679.44,290.12 676.12,292.29"/>
    </edge>
    <edge id=":V0026_2" function="internal">
        <lane id=":V0026_2_0" index="0" speed="21.00" length="15.88" shape="675.17,290.27 688.32,281.36"/>
    </edge>
    <edge id=":V0026_3" function="internal">
        <lane id=":V0026_3_0" index="0" speed="5.87" length="14.91" shape="675.17,290.27 670.63,293.52 669.28,294.94 671.11,294.53 676.12,292.29"/>
    </edge>
    <edge id=":V0027_0" function="internal">
        <lane id=":V0027_0_0" index="0" speed="5.69" length="9.22" shape="456.56,137.48 453.83,137.09 452.10,137.74 451.36,139.44 451.62,142.19"/>
        <lane id=":V0027_0_1" index="1" speed="6.62" length="12.99" shape="456.56,137.48 452.32,136.76 449.56,137.43 448.29,139.47 448.50,142.91"/>
    </edge>
    <edge id=":V0027_2" function="internal">
        <lane id=":V0027_2_0" index="0" speed="15.50" length="29.40" shape="456.56,137.48 447.70,134.45 441.27,131.49 435.68,128.76 429.35,126.46"/>
        <lane id=":V0027_2_1" index="1" speed="15.50" length="29.40" shape="457.43,134.40 448.57,131.37 442.14,128.41 436.55,125.69 430.22,123.38"/>
    </edge>
    <edge id=":V0027_4" function="internal">
        <lane id=":V0027_4_0" index="0" speed="15.50" length="27.78" shape="458.30,131.32 449.00,128.32 441.88,125.21 436.94,121.98 434.18,118.63"/>
        <lane id=":V0027_4_1" index="1" speed="15.50" length="26.19" shape="458.30,131.32 450.73,128.67 444.67,125.44 440.11,121.62 437.06,117.22"/>
    </edge>
    <edge id=":V0028_0" function="internal">
        <lane id=":V0028_0_0" index="0" speed="6.70" length="6.23" shape="547.98,593.67 546.43,593.17 545.19,592.34 544.26,591.17 543.64,589.67"/>
    </edge>
    <edge id=":V0030_0" function="internal">
        <lane id=":V0030_0_0" index="0" speed="5.54" length="9.46" shape="420.90,169.27 423.72,170.07 425.46,169.64 426.11,167.97 425.68,165.07"/>
    </edge>
    <edge id=":V0030_1" function="internal">
        <lane id=":V0030_1_0" index="0" speed="21.00" length="19.71" shape="419.65,172.21 437.81,179.89"/>
        <lane id=":V0030_1_1" index="1" speed="21.00" length="19.71" shape="418.41,175.16 436.56,182.83"/>
    </edge>
    <edge id=":V0030_3" function="internal">
        <lane id=":V0030_3_0" index="0" speed="13.95" length="21.63" shape="424.17,186.57 424.69,179.34 425.51,173.59 426.04,168.94 425.68,165.07"/>
    </edge>
    <edge id=":V0030_4" function="internal">
        <lane id=":V0030_4_0" index="0" speed="7.50" length="15.89" shape="427.37,186.64 428.11,182.07 430.10,179.42 433.33,178.69 437.81,179.89"/>
        <lane id=":V0030_4_1" index="1" speed="5.84" length="9.13" shape="430.56,186.71 430.99,184.09 432.13,182.57 433.99,182.15 436.56,182.83"/>
    </edge>

    <edge id="1a18b778-dd5c-4fec-bc2d-ae273e8b702c_2" from="V0002" to="V0014" priority="-1">
        <lane id="1a18b778-dd5c-4fec-bc2d-ae273e8b702c_2_0" index="0" speed="13.90" length="731.44" shape="116.97,704.42 740.43,321.92"/>
    </edge>
    <edge id="1bf8abc6-2dae-42ee-8252-6b84584b1fbc_1" from="V0022" to="V0018" priority="-1">
        <lane id="1bf8abc6-2dae-42ee-8252-6b84584b1fbc_1_0" index="0" speed="13.90" length="582.65" shape="571.05,688.33 415.09,126.94"/>
    </edge>
    <edge id="1f200c2b-08a6-4d8e-a9aa-c0d1ed9ac796_2" from="V0013" to="V0008" priority="-1">
        <lane id="1f200c2b-08a6-4d8e-a9aa-c0d1ed9ac796_2_0" index="0" speed="13.90" length="547.37" shape="536.30,563.24 389.78,35.85"/>
    </edge>
    <edge id="31f5c169-53ab-47be-a0f5-1a62cad9c908_4" from="V0011" to="V0019" priority="-1">
        <lane id="31f5c169-53ab-47be-a0f5-1a62cad9c908_4_0" index="0" speed="13.90" length="128.88" shape="533.00,688.13 661.82,684.15"/>
        <lane id="31f5c169-53ab-47be-a0f5-1a62cad9c908_4_1" index="1" speed="13.90" length="128.88" shape="533.10,691.33 661.92,687.35"/>
    </edge>
    <edge id="33ae17ed-1362-4ab8-ad26-16d8322af486_3" from="V0009" to="V0004" priority="-1">
        <lane id="33ae17ed-1362-4ab8-ad26-16d8322af486_3_0" index="0" speed="13.90" length="488.71" shape="914.26,402.13 609.53,784.20"/>
    </edge>
    <edge id="380d8489-5241-4d6f-97ff-2df74e116413_3" from="V0023" to="361ebdd5-f0e3-4ce0-b649-5be0fc39bbc1_1" priority="-1">
        <lane id="380d8489-5241-4d6f-97ff-2df74e116413_3_0" index="0" speed="13.90" length="300.77" shape="485.40,191.39 742.39,35.13"/>
        <lane id="380d8489-5241-4d6f-97ff-2df74e116413_3_1" index="1" speed="13.90" length="300.77" shape="487.06,194.12 744.05,37.86"/>
        <lane id="380d8489-5241-4d6f-97ff-2df74e116413_3_2" index="2" speed="13.90" length="300.77" shape="488.72,196.86 745.72,40.60"/>
    </edge>
    <edge id="4d4d6b49-ad6a-41c4-8561-a21cb7772406_2" from="V0026" to="ab385281-d54e-434c-a350-fd805cf02eb9_1" priority="-1">
        <lane id="4d4d6b49-ad6a-41c4-8561-a21cb7772406_2_0" index="0" speed="13.90" length="630.19" shape="676.12,292.29 107.24,563.41"/>
    </edge>
    <edge id="5cea3118-5c0e-4054-b640-fef2adad9742_2" from="V0021" to="V0030" priority="-1">
        <lane id="5cea3118-5c0e-4054-b640-fef2adad9742_2_0" index="0" speed="13.90" length="357.02" shape="416.34,543.51 424.17,186.57"/>
        <lane id="5cea3118-5c0e-4054-b640-fef2adad9742_2_1" index="1" speed="13.90" length="357.02" shape="419.54,543.58 427.37,186.64"/>
        <lane id="5cea3118-5c0e-4054-b640-fef2adad9742_2_2" index="2" speed="13.90" length="357.02" shape="422.74,543.65 430.56,186.71"/>
    </edge>
    <edge id="6a116e01-b2db-4e47-8aeb-d15654a35b70_1" from="V0007" to="V0004" priority="-1">
        <lane id="6a116e01-b2db-4e47-8aeb-d15654a35b70_1_0" index="0" speed="13.90" length="919.48" shape="18.90,11.66 575.10,743.84"/>
        <lane id="6a116e01-b2db-4e47-8aeb-d15654a35b70_1_1" index="1" speed="13.90" length="919.48" shape="16.36,13.60 572.55,745.78"/>
        <lane id="6a116e01-b2db-4e47-8aeb-d15654a35b70_1_2" index="2" speed="13.90" length="919.48" shape="13.81,15.53 570.00,747.71"/>
    </edge>
    <edge id="7cd47be4-58c0-4b7e-a516-00061424a045_2" from="V0027" to="V0022" priority="-1">
        <lane id="7cd47be4-58c0-4b7e-a516-00061424a045_2_0" index="0" speed="13.90" length="558.79" shape="451.62,142.19 577.39,686.57"/>
        <lane id="7cd47be4-58c0-4b7e-a516-00061424a045_2_1" index="1" speed="13.90" length="558.79" shape="448.50,142.91 574.31,687.43"/>
    </edge>
    <edge id="E0005" from="V0001" to="V0004" priority="-1">
        <lane id="E0005_0" index="0" speed="19.00" length="374.95" shape="971.42,687.12 611.05,790.67"/>
    </edge>
    <edge id="E0023" from="V0001" to="V0009" priority="-1">
        <lane id="E0023_0" index="0" speed="15.00" length="278.05" shape="988.78,673.02 920.54,403.49"/>
        <lane id="E0023_1" index="1" speed="15.00" length="278.05" shape="991.88,672.25 923.64,402.70"/>
    </edge>
    <edge id="E0025" from="V0006" to="V0008" priority="-1">
        <lane id="E0025_0" index="0" speed="22.00" length="431.96" shape="764.21,213.64 386.13,4.73"/>
    </edge>
    <edge id="E0045" from="V0004" to="V0011" priority="-1">
        <lane id="E0045_0" index="0" speed="11.00" length="59.83" shape="564.90,751.58 528.71,703.93"/>
        <lane id="E0045_1" index="1" speed="11.00" length="59.83" shape="567.45,749.65 531.26,702.00"/>
    </edge>
    <edge id="E0046" from="V0001" to="V0012" priority="-1">
        <lane id="E0046_0" index="0" speed="26.00" length="240.90" shape="971.20,682.14 734.69,636.34"/>
        <lane id="E0046_1" index="1" speed="26.00" length="240.90" shape="971.80,679.00 735.30,633.20"/>
        <lane id="E0046_2" index="2" speed="26.00" length="240.90" shape="972.41,675.86 735.90,630.06"/>
    </edge>
    <edge id="E0052" from="V0013" to="V0005" priority="-1">
        <lane id="E0052_0" index="0" speed="9.00" length="115.78" shape="544.34,570.09 659.39,583.01"/>
    </edge>
    <edge id="E0054" from="V0005" to="V0014" priority="-1">
        <lane id="E0054_0" index="0" speed="10.00" length="266.44" shape="665.37,579.09 743.64,324.40"/>
        <lane id="E0054_1" index="1" speed="10.00" length="266.44" shape="668.43,580.03 746.69,325.34"/>
    </edge>
    <edge id="E0056" from="V0014" to="V0006" priority="-1">
        <lane id="E0056_0" index="0" speed="20.00" length="90.03" shape="745.95,316.89 772.39,230.83"/>
        <lane id="E0056_1" index="1" speed="20.00" length="90.03" shape="749.00,317.83 775.45,231.77"/>
    </edge>
    <edge id="E0064" from="V0016" to="V0001" priority="-1">
        <lane id="E0064_0" index="0" speed="17.00" length="254.48" shape="891.74,439.24 1000.04,670.22"/>
        <lane id="E0064_1" index="1" speed="17.00" length="254.48" shape="888.85,440.60 996.88,671.01"/>
        <lane id="E0064_2" index="2" speed="17.00" length="254.48" shape="885.95,441.96 993.71,671.80"/>
    </edge>
    <edge id="E0065" from="V0012" to="V0016" priority="-1">
        <lane id="E0065_0" index="0" speed="8.00" length="233.39" shape="733.52,623.60 879.06,441.14"/>
    </edge>
    <edge id="E0067" from="V0016" to="V0009" priority="-1">
        <lane id="E0067_0" index="0" speed="7.00" length="33.74" shape="888.22,424.52 909.26,398.14"/>
        <lane id="E0067_1" index="1" speed="7.00" length="33.74" shape="890.72,426.52 911.76,400.14"/>
    </edge>
    <edge id="E0068" from="V0017" to="V0003" priority="-1">
        <lane id="E0068_0" index="0" speed="13.00" length="229.50" shape="479.70,697.19 302.93,550.83"/>
        <lane id="E0068_1" index="1" speed="13.00" length="229.50" shape="481.74,694.72 304.97,548.36"/>
    </edge>
    <edge id="E0069" from="V0011" to="V0017" priority="-1">
        <lane id="E0069_0" index="0" speed="5.00" length="38.03" shape="523.70,701.22 485.68,702.40"/>
        <lane id="E0069_1" index="1" speed="5.00" length="38.03" shape="523.60,698.03 485.59,699.20"/>
        <lane id="E0069_2" index="2" speed="5.00" length="38.03" shape="523.50,694.83 485.49,696.00"/>
    </edge>
    <edge id="E0072" from="V0018" to="V0007" priority="-1">
        <lane id="E0072_0" index="0" speed="21.00" length="393.70" shape="399.74,118.08 20.81,10.88"/>
        <lane id="E0072_1" index="1" speed="21.00" length="393.70" shape="400.61,115.00 21.87,7.85"/>
    </edge>
    <edge id="E0075" from="V0018" to="V0008" priority="-1">
        <lane id="E0075_0" index="0" speed="21.00" length="76.71" shape="404.15,111.48 383.61,37.56"/>
        <lane id="E0075_1" index="1" speed="21.00" length="76.71" shape="407.23,110.62 386.69,36.71"/>
        <lane id="E0075_2" index="2" speed="21.00" length="76.71" shape="410.31,109.76 389.78,35.85"/>
    </edge>
    <edge id="E0077" from="V0004" to="V0019" priority="-1">
        <lane id="E0077_0" index="0" speed="22.00" length="100.88" shape="602.02,778.21 664.93,699.34"/>
        <lane id="E0077_1" index="1" speed="22.00" length="100.88" shape="604.52,780.21 667.43,701.34"/>
        <lane id="E0077_2" index="2" speed="22.00" length="100.88" shape="607.03,782.20 669.93,703.34"/>
    </edge>
    <edge id="E0079" from="V0019" to="V0012" priority="-1">