<?xml version="1.0" encoding="UTF-8"?>

<!-- generated on 2023-06-26 02:37:28.180399 by randomTrips.py v1_16_0+0000-94ec4c6cd72
<configuration>
    <end value="150"/>
    <fringe-factor value="1"/>
    <net-file value="data/simulationConfigurations/optimized\optimized.net.xml"/>
    <period value="1.0"/>
    <output-trip-file value="data/simulationConfigurations/optimized\optimized.rou.xml"/>
    <prefix value="random_trip_"/>
</configuration>
-->

<routes xmlns:xsi="http://www.w3.org/2001/XMLSchema-instance" xsi:noNamespaceSchemaLocation="http://sumo.dlr.de/xsd/routes_file.xsd">
    <trip id="random_trip_0" depart="0.00" from="E0086" to="1f200c2b-08a6-4d8e-a9aa-c0d1ed9ac796_2"/>
    <trip id="random_trip_1" depart="1.00" from="E0046" to="E0005"/>
    <trip id="random_trip_2" depart="2.00" from="E0102" to="E0084"/>
    <trip id="random_trip_3" depart="3.00" from="E0115" to="33ae17ed-1362-4ab8-ad26-16d8322af486_3"/>
    <trip id="random_trip_4" depart="4.00" from="E0065" to="1f200c2b-08a6-4d8e-a9aa-c0d1ed9ac796_2"/>
    <trip id="random_trip_5" depart="5.00" from="E0023" to="E0068"/>
    <trip id="random_trip_6" depart="6.00" from="1a18b778-dd5c-4fec-bc2d-ae273e8b702c_2" to="7cd47be4-58c0-4b7e-a516-00061424a045_2"/>
    <trip id="random_trip_7" depart="7.00" from="E0089" to="E0072"/>
    <trip id="random_trip_8" depart="8.00" from="E0023" to="E0077"/>
    <trip id="random_trip_9" depart="9.00" from="E0105" to="1bf8abc6-2dae-42ee-8252-6b84584b1fbc_1"/>
    <trip id="random_trip_10" depart="10.00" from="E0105" to="E0086"/>
    <trip id="random_trip_11" depart="11.00" from="E0054" to="5cea3118-5c0e-4054-b640-fef2adad9742_2"/>
    <trip id="random_trip_12" depart="12.00" from="E0120" to="E0046"/>
    <trip id="random_trip_13" depart="13.00" from="33ae17ed-1362-4ab8-ad26-16d8322af486_3" to="33ae17ed-1362-4ab8-ad26-16d8322af486_3"/>
    <trip id="random_trip_14" depart="14.00" from="E0108" to="E0077"/>
    <trip id="random_trip_15" depart="15.00" from="E0105" to="E0089"/>
    <trip id="random_trip_16" depart="16.00" from="E0077" to="E0120"/>
    <trip id="random_trip_17" depart="17.00" from="E0064" to="E0072"/>
    <trip id="random_trip_18" depart="18.00" from="E0106" to="E0079"/>
    <trip id="random_trip_19" depart="19.00" from="E0108" to="E0075"/>
    <trip id="random_trip_20" depart="20.00" from="E0093" to="1f200c2b-08a6-4d8e-a9aa-c0d1ed9ac796_2"/>
    <trip id="random_trip_21" depart="21.00" from="E0023" to="E0025"/>
    <trip id="random_trip_22" depart="22.00" from="31f5c169-53ab-47be-a0f5-1a62cad9c908_4" to="E0005"/>
    <trip id="random_trip_23" depart="23.00" from="33ae17ed-1362-4ab8-ad26-16d8322af486_3" to="E0025"/>
    <trip id="random_trip_24" depart="24.00" from="E0086" to="E0052"/>
    <trip id="random_trip_25" depart="25.00" from="E0056" to="7cd47be4-58c0-4b7e-a516-00061424a045_2"/>
    <trip id="random_trip_26" depart="26.00" from="E0045" to="E0118"/>
    <trip id="random_trip_27" depart="27.00" from="E0086" to="E0077"/>
    <trip id="random_trip_28" depart="28.00" from="7cd47be4-58c0-4b7e-a516-00061424a045_2" to="E0089"/>
    <trip id="random_trip_29" depart="29.00" from="7cd47be4-58c0-4b7e-a516-00061424a045_2" to="E0054"/>
    <trip id="random_trip_30" depart="30.00" from="E0123" to="E0082"/>
    <trip id="random_trip_31" depart="31.00" from="E0079" to="E0086"/>
    <trip id="random_trip_32" depart="32.00" from="E0108" to="E0104"/>
    <trip id="random_trip_33" depart="33.00" from="E0023" to="1f200c2b-08a6-4d8e-a9aa-c0d1ed9ac796_2"/>
    <trip id="random_trip_34" depart="34.00" from="E0052" to="E0023"/>
    <trip id="random_trip_35" depart="35.00" from="E0005" to="E0118"/>
    <trip id="random_trip_36" depart="36.00" from="E0110" to="E0045"/>
    <trip id="random_trip_37" depart="37.00" from="E0089" to="E0056"/>
    <trip id="random_trip_38" depart="38.00" from="E0115" to="E0065"/>
    <trip id="random_trip_39" depart="39.00" from="E0045" to="E0023"/>
    <trip id="random_trip_40" depart="40.00" from="E0079" to="E0023"/>
    <trip id="random_trip_41" depart="41.00" from="E0082" to="E0111"/>
    <trip id="random_trip_42" depart="42.00" from="E0064" to="7cd47be4-58c0-4b7e-a516-00061424a045_2"/>
    <trip id="random_trip_43" depart="43.00" from="E0123" to="E0068"/>
    <trip id="random_trip_44" depart="44.00" from="33ae17ed-1362-4ab8-ad26-16d8322af486_3" to="1f200c2b-08a6-4d8e-a9aa-c0d1ed9ac796_2"/>
    <trip id="random_trip_45" depart="45.00" from="5cea3118-5c0e-4054-b640-fef2adad9742_2" to="E0079"/>
    <trip id="random_trip_46" depart="46.00" from="E0105" to="E0064"/>
    <trip id="random_trip_47" depart="47.00" from="31f5c169-53ab-47be-a0f5-1a62cad9c908_4" to="E0054"/>
    <trip id="random_trip_48" depart="48.00" from="E0123" to="E0069"/>
    <trip id="random_trip_49" depart="49.00" from="E0120" to="E0110"/>
    <trip id="random_trip_50" depart="50.00" from="1a18b778-dd5c-4fec-bc2d-ae273e8b702c_2" to="E0089"/>
    <trip id="random_trip_51" depart="51.00" from="E0091" to="E0072"/>
    <trip id="random_trip_52" depart="52.00" from="E0045" to="E0082"/>
    <trip id="random_trip_53" depart="53.00" from="5cea3118-5c0e-4054-b640-fef2adad9742_2" to="E0064"/>
    <trip id="random_trip_54" depart="54.00" from="E0068" to="E0120"/>
    <trip id="random_trip_55" depart="55.00" from="E0110" to="E0023"/>
    <trip id="random_trip_56" depart="56.00" from="E0072" to="6a116e01-b2db-4e47-8aeb-d15654a35b70_1"/>
    <trip id="random_trip_57" depart="57.00" from="E0115" to="E0110"/>
    <trip id="random_trip_58" depart="58.00" from="E0052" to="E0082"/>
    <trip id="random_trip_59" depart="59.00" from="E0084" to="5cea3118-5c0e-4054-b640-fef2adad9742_2"/>
    <trip id="random_trip_60" depart="60.00" from="E0104" to="E0072"/>
    <trip id="random_trip_61" depart="61.00" from="E0104" to="E0069"/>
    <trip id="random_trip_62" depart="62.00" from="1a18b778-dd5c-4fec-bc2d-ae273e8b702c_2" to="E0046"/>
    <trip id="random_trip_63" depart="63.00" from="1a18b778-dd5c-4fec-bc2d-ae273e8b702c_2" to="E0118"/>
    <trip id="random_trip_64" depart="64.00" from="E0110" to="E0108"/>
    <trip id="random_trip_65" depart="65.00" from="E0052" to="31f5c169-53ab-47be-a0f5-1a62cad9c908_4"/>
    <trip id="random_trip_66" depart="66.00" from="E0110" to="E0118"/>
    <trip id="random_trip_67" depart="67.00" from="33ae17ed-1362-4ab8-ad26-16d8322af486_3" to="E0067"/>
    <trip id="random_trip_68" depart="68.00" from="31f5c169-53ab-47be-a0f5-1a62cad9c908_4" to="E0104"/>
    <trip id="random_trip_69" depart="69.00" from="E0104" to="4d4d6b49-ad6a-41c4-8561-a21cb7772406_2"/>
    <trip id="random_trip_70" depart="70.00" from="E0069" to="E0072"/>
    <trip id="random_trip_71" depart="71.00" from="E0045" to="E0110"/>
    <trip id="random_trip_72" depart="72.00" from="E0065" to="7cd47be4-58c0-4b7e-a516-00061424a045_2"/>
    <trip id="random_trip_73" depart="73.00" from="E0077" to="E0089"/>
    <trip id="random_trip_74" depart="74.00" from="E0005" to="E0045"/>
    <trip id="random_trip_75" depart="75.00" from="E0123" to="E0082"/>
    <trip id="random_trip_76" depart="76.00" from="E0068" to="E0069"/>
    <trip id="random_trip_77" depart="77.00" from="5cea3118-5c0e-4054-b640-fef2adad9742_2" to="E0005"/>
    <trip id="random_trip_78" depart="78.00" from="E0054" to="E0077"/>
    <trip id="random_trip_79" depart="79.00" from="E0023" to="E0005"/>
    <trip id="random_trip_80" depart="80.00" from="31f5c169-53ab-47be-a0f5-1a62cad9c908_4" to="E0079"/>
    <trip id="random_trip_81" depart="81.00" from="E0023" to="E0115"/>
    <trip id="random_trip_82" depart="82.00" from="E0108" to="31f5c169-53ab-47be-a0f5-1a62cad9c908_4"/>
    <trip id="random_trip_83" depart="83.00" from="E0023" to="E0084"/>
    <trip id="random_trip_84" depart="84.00" from="E0005" to="4d4d6b49-ad6a-41c4-8561-a21cb7772406_2"/>
    <trip id="random_trip_85" depart="85.00" from="E0118" to="E0075"/>
    <trip id="random_trip_86" depart="86.00" from="E0069" to="E0105"/>
    <trip id="random_trip_87" depart="87.00" from="E0105" to="6a116e01-b2db-4e47-8aeb-d15654a35b70_1"/>
    <trip id="random_trip_88" depart="88.00" from="33ae17ed-1362-4ab8-ad26-16d8322af486_3" to="E0064"/>
    <trip id="random_trip_89" depart="89.00" from="E0065" to="E0067"/>
    <trip id="random_trip_90" depart="90.00" from="E0093" to="E0084"/>
    <trip id="random_trip_91" depart="91.00" from="E0123" to="380d8489-5241-4d6f-97ff-2df74e116413_3"/>
    <trip id="random_trip_92" depart="92.00" from="E0064" to="E0046"/>
    <trip id="random_trip_93" depart="93.00" from="E0108" to="E0023"/>
    <trip id="random_trip_94" depart="94.00" from="E0005" to="E0065"/>
    <trip id="random_trip_95" depart="95.00" from="E0065" to="E0025"/>
    <trip id="random_trip_96" depart="96.00" from="E0045" to="E0115"/>
    <trip id="random_trip_97" depart="97.00" from="E0068" to="E0110"/>
    <trip id="random_trip_98" depart="98.00" from="E0079" to="31f5c169-53ab-47be-a0f5-1a62cad9c908_4"/>
    <trip id="random_trip_99" depart="99.00" from="E0123" to="E0108"/>
    <trip id="random_trip_100" depart="100.00" from="E0120" to="E0115"/>
    <trip id="random_trip_101" depart="101.00" from="E0108" to="5cea3118-5c0e-4054-b640-fef2adad9742_2"/>
    <trip id="random_trip_102" depart="102.00" from="E0069" to="7cd47be4-58c0-4b7e-a516-00061424a045_2"/>
    <trip id="random_trip_103" depart="103.00" from="E0064" to="31f5c169-53ab-47be-a0f5-1a62cad9c908_4"/>
    <trip id="random_trip_104" depart="104.00" from="E0064" to="E0123"/>
    <trip id="random_trip_105" depart="105.00" from="E0045" to="E0105"/>
    <trip id="random_trip_106" depart="106.00" from="E0068" to="E0064"/>
    <trip id="random_trip_107" depart="107.00" from="E0120" to="E0123"/>
    <trip id="random_trip_108" depart="108.00" from="E0079" to="E0089"/>
    <trip id="random_trip_109" depart="109.00" from="6a116e01-b2db-4e47-8aeb-d15654a35b70_1" to="E0045"/>
    <trip id="random_trip_110" depart="110.00" from="E0120" to="E0075"/>
    <trip id="random_trip_111" depart="111.00" from="E0079" to="E0091"/>
    <trip id="random_trip_112" depart="112.00" from="31f5c169-53ab-47be-a0f5-1a62cad9c908_4" to="E0075"/>
    <trip id="random_trip_113" depart="113.00" from="E0072" to="E0108"/>
    <trip id="random_trip_114" depart="114.00" from="6a116e01-b2db-4e47-8aeb-d15654a35b70_1" to="E0120"/>
    <trip id="random_trip_115" depart="115.00" from="31f5c169-53ab-47be-a0f5-1a62cad9c908_4" to="6a116e01-b2db-4e47-8aeb-d15654a35b70_1"/>
    <trip id="random_trip_116" depart="116.00" from="E0084" to="E0084"/>
    <trip id="random_trip_117" depart="117.00" from="E0023" to="380d8489-5241-4d6f-97ff-2df74e116413_3"/>
    <trip id="random_trip_118" depart="118.00" from="E0110" to="E0023"/>
    <trip id="random_trip_119" depart="119.00" from="E0082" to="E0079"/>
    <trip id="random_trip_120" depart="120.00" from="E0065" to="E0075"/>
    <trip id="random_trip_121" depart="121.00" from="E0077" to="E0118"/>
    <trip id="random_trip_122" depart="122.00" from="E0005" to="E0089"/>
    <trip id="random_trip_123" depart="123.00" from="E0023" to="E0056"/>
    <trip id="random_trip_124" depart="124.00" from="E0089" to="E0045"/>
    <trip id="random_trip_125" depart="125.00" from="E0052" to="E0091"/>
    <trip id="random_trip_126" depart="126.00" from="31f5c169-53ab-47be-a0f5-1a62cad9c908_4" to="E0065"/>
    <trip id="random_trip_127" depart="127.00" from="E0123" to="E0123"/>
    <trip id="random_trip_128" depart="128.00" from="31f5c169-53ab-47be-a0f5-1a62cad9c908_4" to="7cd47be4-58c0-4b7e-a516-00061424a045_2"/>
    <trip id="random_trip_129" depart="129.00" from="E0045" to="E0118"/>
    <trip id="random_trip_130" depart="130.00" from="E0110" to="E0111"/>
    <trip id="random_trip_131" depart="131.00" from="E0056" to="5cea3118-5c0e-4054-b640-fef2adad9742_2"/>
    <trip id="random_trip_132" depart="132.00" from="E0106" to="E0086"/>
    <trip id="random_trip_133" depart="133.00" from="E0084" to="E0123"/>
    <trip id="random_trip_134" depart="134.00" from="E0089" to="1bf8abc6-2dae-42ee-8252-6b84584b1fbc_1"/>
    <trip id="random_trip_135" depart="135.00" from="E0106" to="E0045"/>
    <trip id="random_trip_136" depart="136.00" from="E0089" to="E0118"/>
    <trip id="random_trip_137" depart="137.00" from="5cea3118-5c0e-4054-b640-fef2adad9742_2" to="380d8489-5241-4d6f-97ff-2df74e116413_3"/>
    <trip id="random_trip_138" depart="138.00" from="33ae17ed-1362-4ab8-ad26-16d8322af486_3" to="E0072"/>
    <trip id="random_trip_139" depart="139.00" from="E0046" to="E0077"/>
    <trip id="random_trip_140" depart="140.00" from="E0093" to="7cd47be4-58c0-4b7e-a516-00061424a045_2"/>
    <trip id="random_trip_141" depart="141.00" from="E0086" to="E0023"/>
    <trip id="random_trip_142" depart="142.00" from="E0072" to="E0115"/>
    <trip id="random_trip_143" depart="143.00" from="E0108" to="33ae17ed-1362-4ab8-ad26-16d8322af486_3"/>
    <trip id="random_trip_144" depart="144.00" from="E0065" to="E0025"/>
    <trip id="random_trip_145" depart="145.00" from="1a18b778-dd5c-4fec-bc2d-ae273e8b702c_2" to="E0104"/>
    <trip id="random_trip_146" depart="146.00" from="E0086" to="E0023"/>
    <trip id="random_trip_147" depart="147.00" from="E0102" to="E0072"/>
    <trip id="random_trip_148" depart="148.00" from="E0065" to="1bf8abc6-2dae-42ee-8252-6b84584b1fbc_1"/>
    <trip id="random_trip_149" depart="149.00" from="31f5c169-53ab-47be-a0f5-1a62cad9c908_4" to="E0111"/>
</routes>
