<nodes><node id="V0001" x="314.91" y="1082.7583333333334" type="priority" /><node id="V0002" x="1194.05" y="1250.5249999999999" type="priority" /><node id="V0003" x="678.4058333333334" y="39.38925" type="priority" /><node id="V0004" x="198.73666666666668" y="231.24916666666664" type="priority" /><node id="V0005" x="327.9725" y="568.9058333333334" type="priority" /><node id="V0006" x="919.1750000000001" y="973.9499999999999" type="priority" /><node id="V0007" x="66.08275" y="1181.2666666666667" type="priority" /><node id="V0008" x="478.53" y="804.6308333333333" type="priority" /><node id="V0009" x="1138.2583333333334" y="834.7833333333333" type="priority" /><node id="V0010" x="453.99333333333334" y="216.47833333333332" type="priority" /><node id="V0011" x="402.595" y="1099.4916666666666" type="priority" /><node id="V0012" x="1042.8500000000001" y="895.3916666666668" type="priority" /><node id="V0013" x="261.90333333333336" y="694.235" type="priority" /><node id="V0014" x="318.26" y="950.9833333333332" type="priority" /><node id="V0015" x="875.9083333333333" y="806.0058333333333" type="priority" /><node id="V0016" x="348.42333333333335" y="538.0033333333333" type="priority" /><node id="V0017" x="435.35583333333335" y="737.0333333333333" type="priority" /><node id="V0018" x="374.99666666666667" y="412.955" type="priority" /><node id="V0019" x="972.0583333333334" y="940.3583333333332" type="priority" /><node id="V0020" x="299.295" y="968.3083333333334" type="priority" /><node id="V0021" x="380.67333333333335" y="893.9916666666667" type="priority" /><node id="V0022" x="509.6983333333333" y="294.3125" type="priority" /><node id="V0023" x="335.4275" y="511.3691666666667" type="priority" /><node id="V0024" x="439.59999999999997" y="724.8508333333333" type="priority" /><node id="V0025" x="408.395" y="447.385" type="priority" /><node id="V0026" x="563.4358333333333" y="369.39750000000004" type="priority" /><node id="V0027" x="502.4766666666667" y="544.3725000000001" type="priority" /></nodes>