<configuration><input><net-file value="optimized.net.xml" /><route-files value="optimized.rou.xml" /></input><time><begin value="0" /></time></configuration>