<nodes><node id="V0001" x="1048.6" y="696.6666666666666" type="priority" /><node id="V0002" x="171.262" y="723.8199999999999" type="priority" /><node id="V0003" x="356.3586666666667" y="562.6146666666666" type="priority" /><node id="V0004" x="654.9026666666667" y="809.7933333333333" type="priority" /><node id="V0005" x="721.8333333333334" y="603.664" type="priority" /><node id="V0006" x="833.9466666666667" y="238.842" type="priority" /><node id="V0007" x="53.452133333333336" y="18.0344" type="priority" /><node id="V0008" x="435.03933333333333" y="18.425066666666666" type="priority" /><node id="V0009" x="975.4866666666666" y="407.8573333333333" type="priority" /><node id="V0011" x="579.9866666666666" y="711.1666666666666" type="priority" /><node id="V0012" x="785.7333333333333" y="645.7633333333334" type="priority" /><node id="V0013" x="593.6346666666667" y="589.2653333333333" type="priority" /><node id="V0014" x="804.2533333333333" y="335.4626666666666" type="priority" /><node id="V0015" x="615.5933333333334" y="386.87" type="priority" /><node id="V0016" x="936.2533333333333" y="457.0473333333333" type="priority" /><node id="V0017" x="537.3786666666667" y="712.4866666666666" type="priority" /><node id="V0018" x="467.47266666666667" y="135.16400000000002" type="priority" /><node id="V0019" x="737.4466666666667" y="706.3" type="priority" /><node id="V0021" x="477.4713333333333" y="576.2180000000001" type="priority" /><node id="V0022" x="627.098" y="709.7133333333334" type="priority" /><node id="V0023" x="534.5166666666667" y="221.422" type="priority" /><node id="V0026" x="734.76" y="306.0826666666666" type="priority" /><node id="V0027" x="496.23400000000004" y="143.30066666666667" type="priority" /><node id="V0028" x="599.3013333333333" y="609.6613333333333" type="priority" /><node id="V0030" x="485.704" y="200.78466666666665" type="priority" /><node id="361ebdd5-f0e3-4ce0-b649-5be0fc39bbc1_1" x="800.0" y="60.0" type="priority" /><node id="ab385281-d54e-434c-a350-fd805cf02eb9_1" x="160.0" y="580.0" type="priority" /><node id="29512bd1-71f4-44e3-9dec-457f5324c175_2" x="660.0" y="400.0" type="priority" /><node id="2c34b856-fa1b-4ecd-851f-709538a92854_1" x="500.0" y="580.0" type="priority" /><node id="64badee4-7e83-4e9f-9945-4114773c0e65_1" x="460.0" y="600.0" type="priority" /><node id="9223373d-eb87-4393-9fc0-9ee2df2e5ee4_1" x="180.0" y="480.0" type="priority" /><node id="4d06d498-5e89-4b27-9755-5b98c900725f_1" x="560.0" y="240.0" type="priority" /><node id="0215c6fb-7859-4c53-910d-507fa1cf3cd7_2" x="620.0" y="260.0" type="priority" /><node id="f2f373b4-d7d4-4744-b936-0df7c774a929_1" x="120.0" y="640.0" type="priority" /><node id="00840650-684a-44c4-bb50-3bddf6cad9fe_1" x="220.0" y="460.0" type="priority" /></nodes>