<edges><edge id="E0005" from="V0001" to="V0004" numLanes="1" speed="19.0" /><edge id="E0023" from="V0001" to="V0009" numLanes="2" speed="15.0" /><edge id="E0025" from="V0006" to="V0008" numLanes="1" speed="22.0" /><edge id="E0045" from="V0004" to="V0011" numLanes="2" speed="11.0" /><edge id="E0046" from="V0001" to="V0012" numLanes="3" speed="26.0" /><edge id="E0052" from="V0013" to="V0005" numLanes="1" speed="9.0" /><edge id="E0054" from="V0005" to="V0014" numLanes="2" speed="10.0" /><edge id="E0056" from="V0014" to="V0006" numLanes="2" speed="20.0" /><edge id="E0064" from="V0016" to="V0001" numLanes="3" speed="17.0" /><edge id="E0065" from="V0012" to="V0016" numLanes="1" speed="8.0" /><edge id="E0067" from="V0016" to="V0009" numLanes="2" speed="7.0" /><edge id="E0068" from="V0017" to="V0003" numLanes="2" speed="13.0" /><edge id="E0069" from="V0011" to="V0017" numLanes="3" speed="5.0" /><edge id="E0072" from="V0018" to="V0007" numLanes="2" speed="21.0" /><edge id="E0075" from="V0018" to="V0008" numLanes="3" speed="21.0" /><edge id="E0077" from="V0004" to="V0019" numLanes="3" speed="22.0" /><edge id="E0079" from="V0019" to="V0012" numLanes="2" speed="5.0" /><edge id="E0082" from="V0003" to="V0021" numLanes="3" speed="7.0" /><edge id="E0084" from="V0021" to="V0013" numLanes="1" speed="10.0" /><edge id="E0086" from="V0004" to="V0022" numLanes="3" speed="11.0" /><edge id="E0089" from="V0019" to="V0022" numLanes="2" speed="5.0" /><edge id="E0091" from="V0022" to="V0011" numLanes="2" speed="21.0" /><edge id="E0093" from="V0015" to="V0023" numLanes="2" speed="7.0" /><edge id="E0102" from="V0015" to="V0026" numLanes="1" speed="17.0" /><edge id="E0104" from="V0026" to="V0006" numLanes="1" speed="25.0" /><edge id="E0105" from="V0023" to="V0026" numLanes="2" speed="17.0" /><edge id="E0106" from="V0006" to="V0027" numLanes="3" speed="5.0" /><edge id="E0108" from="V0027" to="V0018" numLanes="2" speed="26.0" /><edge id="E0111" from="V0027" to="V0008" numLanes="2" speed="26.0" /><edge id="E0110" from="V0012" to="V0028" numLanes="2" speed="12.0" /><edge id="E0115" from="V0028" to="V0013" numLanes="1" speed="24.0" /><edge id="E0118" from="V0007" to="V0030" numLanes="3" speed="21.0" /><edge id="E0120" from="V0030" to="V0023" numLanes="2" speed="21.0" /><edge id="E0123" from="V0030" to="V0018" numLanes="1" speed="14.0" /><edge id="6a116e01-b2db-4e47-8aeb-d15654a35b70_1" from="V0007" to="V0004" numLanes="3" speed="13.9" /><edge id="1a18b778-dd5c-4fec-bc2d-ae273e8b702c_2" from="V0002" to="V0014" numLanes="1" speed="13.9" /><edge id="33ae17ed-1362-4ab8-ad26-16d8322af486_3" from="V0009" to="V0004" numLanes="1" speed="13.9" /><edge id="31f5c169-53ab-47be-a0f5-1a62cad9c908_4" from="V0011" to="V0019" numLanes="2" speed="13.9" /><edge id="5cea3118-5c0e-4054-b640-fef2adad9742_2" from="V0021" to="V0030" numLanes="3" speed="13.9" /><edge id="380d8489-5241-4d6f-97ff-2df74e116413_3" from="V0023" to="361ebdd5-f0e3-4ce0-b649-5be0fc39bbc1_1" numLanes="3" speed="13.9" /><edge id="4d4d6b49-ad6a-41c4-8561-a21cb7772406_2" from="V0026" to="ab385281-d54e-434c-a350-fd805cf02eb9_1" numLanes="1" speed="13.9" /><edge id="1bf8abc6-2dae-42ee-8252-6b84584b1fbc_1" from="V0022" to="V0018" numLanes="1" speed="13.9" /><edge id="7cd47be4-58c0-4b7e-a516-00061424a045_2" from="V0027" to="V0022" numLanes="2" speed="13.9" /><edge id="1f200c2b-08a6-4d8e-a9aa-c0d1ed9ac796_2" from="V0013" to="V0008" numLanes="1" speed="13.9" /></edges>