<?xml version="1.0" encoding="UTF-8"?>

<!-- generated on 2023-06-27 20:02:39.479429 by randomTrips.py v1_16_0+0000-94ec4c6cd72
<configuration>
    <end value="200"/>
    <fringe-factor value="1"/>
    <net-file value="data/simulationConfigurations/optimized\optimized.net.xml"/>
    <period value="0.8"/>
    <output-trip-file value="data/simulationConfigurations/optimized\optimized.rou.xml"/>
    <prefix value="random_trip_"/>
</configuration>
-->

<routes xmlns:xsi="http://www.w3.org/2001/XMLSchema-instance" xsi:noNamespaceSchemaLocation="http://sumo.dlr.de/xsd/routes_file.xsd">
    <trip id="random_trip_0" depart="0.00" from="E0090" to="E0013"/>
    <trip id="random_trip_1" depart="0.80" from="E0060" to="E0053"/>
    <trip id="random_trip_2" depart="1.60" from="E0095" to="E0092"/>
    <trip id="random_trip_3" depart="2.40" from="E0105" to="E0039"/>
    <trip id="random_trip_4" depart="3.20" from="E0076" to="E0013"/>
    <trip id="random_trip_5" depart="4.00" from="E0054" to="E0081"/>
    <trip id="random_trip_6" depart="4.80" from="E0013" to="E0052"/>
    <trip id="random_trip_7" depart="5.60" from="E0090" to="E0083"/>
    <trip id="random_trip_8" depart="6.40" from="E0054" to="E0085"/>
    <trip id="random_trip_9" depart="7.20" from="E0101" to="E0011"/>
    <trip id="random_trip_10" depart="8.00" from="E0100" to="E0093"/>
    <trip id="random_trip_11" depart="8.80" from="E0068" to="E0046"/>
    <trip id="random_trip_12" depart="9.60" from="E0109" to="E0068"/>
    <trip id="random_trip_13" depart="10.40" from="E0041" to="E0041"/>
    <trip id="random_trip_14" depart="11.20" from="E0103" to="E0087"/>
    <trip id="random_trip_15" depart="12.00" from="E0100" to="E0094"/>
    <trip id="random_trip_16" depart="12.80" from="E0082" to="E0111"/>
    <trip id="random_trip_17" depart="13.60" from="E0074" to="E0083"/>
    <trip id="random_trip_18" depart="14.40" from="E0102" to="E0088"/>
    <trip id="random_trip_19" depart="15.20" from="E0103" to="E0085"/>
    <trip id="random_trip_20" depart="16.00" from="E0093" to="E0023"/>
    <trip id="random_trip_21" depart="16.80" from="E0054" to="E0062"/>
    <trip id="random_trip_22" depart="17.60" from="E0041" to="E0056"/>
    <trip id="random_trip_23" depart="18.40" from="E0043" to="E0060"/>
    <trip id="random_trip_24" depart="19.20" from="E0090" to="E0072"/>
    <trip id="random_trip_25" depart="20.00" from="E0074" to="E0052"/>
    <trip id="random_trip_26" depart="20.80" from="E0058" to="E0108"/>
    <trip id="random_trip_27" depart="21.60" from="E0090" to="E0087"/>
    <trip id="random_trip_28" depart="22.40" from="E0048" to="E0094"/>
    <trip id="random_trip_29" depart="23.20" from="E0048" to="E0074"/>
    <trip id="random_trip_30" depart="24.00" from="ab5ff696-0dfa-404f-a9db-d8f7d15073c2_1" to="E0090"/>
    <trip id="random_trip_31" depart="24.80" from="E0083" to="E0092"/>
    <trip id="random_trip_32" depart="25.60" from="E0102" to="E0099"/>
    <trip id="random_trip_33" depart="26.40" from="E0054" to="E0013"/>
    <trip id="random_trip_34" depart="27.20" from="E0066" to="E0058"/>
    <trip id="random_trip_35" depart="28.00" from="E0053" to="E0109"/>
    <trip id="random_trip_36" depart="28.80" from="E0104" to="E0066"/>
    <trip id="random_trip_37" depart="29.60" from="E0091" to="E0075"/>
    <trip id="random_trip_38" depart="30.40" from="E0106" to="E0078"/>
    <trip id="random_trip_39" depart="31.20" from="E0058" to="E0056"/>
    <trip id="random_trip_40" depart="32.00" from="E0084" to="E0058"/>
    <trip id="random_trip_41" depart="32.80" from="E0085" to="E0105"/>
    <trip id="random_trip_42" depart="33.60" from="E0075" to="E0053"/>
    <trip id="random_trip_43" depart="34.40" from="ab5ff696-0dfa-404f-a9db-d8f7d15073c2_1" to="E0081"/>
    <trip id="random_trip_44" depart="35.20" from="E0041" to="E0023"/>
    <trip id="random_trip_45" depart="36.00" from="E0043" to="E0088"/>
    <trip id="random_trip_46" depart="36.80" from="E0100" to="E0076"/>
    <trip id="random_trip_47" depart="37.60" from="E0039" to="E0074"/>
    <trip id="random_trip_48" depart="38.40" from="ab5ff696-0dfa-404f-a9db-d8f7d15073c2_1" to="E0082"/>
    <trip id="random_trip_49" depart="39.20" from="E0111" to="E0103"/>
    <trip id="random_trip_50" depart="40.00" from="E0011" to="E0094"/>
    <trip id="random_trip_51" depart="40.80" from="E0092" to="E0082"/>
    <trip id="random_trip_52" depart="41.60" from="E0058" to="E0090"/>
    <trip id="random_trip_53" depart="42.40" from="E0043" to="E0077"/>
    <trip id="random_trip_54" depart="43.20" from="E0078" to="E0109"/>
    <trip id="random_trip_55" depart="44.00" from="E0104" to="E0058"/>
    <trip id="random_trip_56" depart="44.80" from="E0081" to="E0048"/>
    <trip id="random_trip_57" depart="45.60" from="E0106" to="E0104"/>
    <trip id="random_trip_58" depart="46.40" from="E0062" to="E0090"/>
    <trip id="random_trip_59" depart="47.20" from="E0087" to="E0045"/>
    <trip id="random_trip_60" depart="48.00" from="E0096" to="E0083"/>
    <trip id="random_trip_61" depart="48.80" from="E0099" to="E0082"/>
    <trip id="random_trip_62" depart="49.60" from="E0011" to="E0066"/>
    <trip id="random_trip_63" depart="50.40" from="E0013" to="E0108"/>
    <trip id="random_trip_64" depart="51.20" from="E0104" to="E0102"/>
    <trip id="random_trip_65" depart="52.00" from="E0062" to="E0031"/>
    <trip id="random_trip_66" depart="52.80" from="E0104" to="E0109"/>
    <trip id="random_trip_67" depart="53.60" from="E0041" to="E0080"/>
    <trip id="random_trip_68" depart="54.40" from="E0039" to="E0096"/>
    <trip id="random_trip_69" depart="55.20" from="E0096" to="E0043"/>
    <trip id="random_trip_70" depart="56.00" from="E0079" to="E0083"/>
    <trip id="random_trip_71" depart="56.80" from="E0058" to="E0104"/>
    <trip id="random_trip_72" depart="57.60" from="E0077" to="E0053"/>
    <trip id="random_trip_73" depart="58.40" from="E0083" to="E0094"/>
    <trip id="random_trip_74" depart="59.20" from="E0053" to="E0066"/>
    <trip id="random_trip_75" depart="60.00" from="ab5ff696-0dfa-404f-a9db-d8f7d15073c2_1" to="E0090"/>
    <trip id="random_trip_76" depart="60.80" from="E0077" to="E0081"/>
    <trip id="random_trip_77" depart="61.60" from="E0045" to="E0053"/>
    <trip id="random_trip_78" depart="62.40" from="E0068" to="E0085"/>
    <trip id="random_trip_79" depart="63.20" from="E0054" to="E0053"/>
    <trip id="random_trip_80" depart="64.00" from="E0039" to="E0088"/>
    <trip id="random_trip_81" depart="64.80" from="E0054" to="E0106"/>
    <trip id="random_trip_82" depart="65.60" from="E0103" to="E0031"/>
    <trip id="random_trip_83" depart="66.40" from="E0056" to="E0091"/>
    <trip id="random_trip_84" depart="67.20" from="E0054" to="E0043"/>
    <trip id="random_trip_85" depart="68.00" from="E0108" to="E0084"/>
    <trip id="random_trip_86" depart="68.80" from="E0079" to="E0099"/>
    <trip id="random_trip_87" depart="69.60" from="E0100" to="E0048"/>
    <trip id="random_trip_88" depart="70.40" from="E0043" to="E0077"/>
    <trip id="random_trip_89" depart="71.20" from="E0077" to="E0079"/>
    <trip id="random_trip_90" depart="72.00" from="E0094" to="E0092"/>
    <trip id="random_trip_91" depart="72.80" from="ab5ff696-0dfa-404f-a9db-d8f7d15073c2_1" to="E0041"/>
    <trip id="random_trip_92" depart="73.60" from="E0075" to="E0068"/>
    <trip id="random_trip_93" depart="74.40" from="E0103" to="E0056"/>
    <trip id="random_trip_94" depart="75.20" from="E0052" to="E0078"/>
    <trip id="random_trip_95" depart="76.00" from="E0076" to="E0060"/>
    <trip id="random_trip_96" depart="76.80" from="E0056" to="E0108"/>
    <trip id="random_trip_97" depart="77.60" from="E0078" to="E0103"/>
    <trip id="random_trip_98" depart="78.40" from="E0083" to="E0023"/>
    <trip id="random_trip_99" depart="79.20" from="ab5ff696-0dfa-404f-a9db-d8f7d15073c2_1" to="E0102"/>
    <trip id="random_trip_100" depart="80.00" from="E0111" to="E0108"/>
    <trip id="random_trip_101" depart="80.80" from="E0103" to="E0046"/>
    <trip id="random_trip_102" depart="81.60" from="E0080" to="E0053"/>
    <trip id="random_trip_103" depart="82.40" from="E0075" to="E0031"/>
    <trip id="random_trip_104" depart="83.20" from="E0074" to="ab5ff696-0dfa-404f-a9db-d8f7d15073c2_1"/>
    <trip id="random_trip_105" depart="84.00" from="E0058" to="E0099"/>
    <trip id="random_trip_106" depart="84.80" from="E0078" to="E0076"/>
    <trip id="random_trip_107" depart="85.60" from="E0109" to="ab5ff696-0dfa-404f-a9db-d8f7d15073c2_1"/>
    <trip id="random_trip_108" depart="86.40" from="E0083" to="E0094"/>
    <trip id="random_trip_109" depart="87.20" from="E0048" to="E0062"/>
    <trip id="random_trip_110" depart="88.00" from="E0111" to="E0085"/>
    <trip id="random_trip_111" depart="88.80" from="E0083" to="E0095"/>
    <trip id="random_trip_112" depart="89.60" from="E0031" to="E0085"/>
    <trip id="random_trip_113" depart="90.40" from="E0081" to="E0103"/>
    <trip id="random_trip_114" depart="91.20" from="E0048" to="E0109"/>
    <trip id="random_trip_115" depart="92.00" from="E0041" to="E0048"/>
    <trip id="random_trip_116" depart="92.80" from="E0085" to="E0092"/>
    <trip id="random_trip_117" depart="93.60" from="E0056" to="E0043"/>
    <trip id="random_trip_118" depart="94.40" from="E0105" to="E0056"/>
    <trip id="random_trip_119" depart="95.20" from="E0085" to="E0088"/>
    <trip id="random_trip_120" depart="96.00" from="E0076" to="E0085"/>
    <trip id="random_trip_121" depart="96.80" from="E0082" to="E0108"/>
    <trip id="random_trip_122" depart="97.60" from="E0053" to="E0094"/>
    <trip id="random_trip_123" depart="98.40" from="E0056" to="E0075"/>
    <trip id="random_trip_124" depart="99.20" from="E0091" to="E0062"/>
    <trip id="random_trip_125" depart="100.00" from="E0066" to="E0096"/>
    <trip id="random_trip_126" depart="100.80" from="E0039" to="E0078"/>
    <trip id="random_trip_127" depart="101.60" from="ab5ff696-0dfa-404f-a9db-d8f7d15073c2_1" to="ab5ff696-0dfa-404f-a9db-d8f7d15073c2_1"/>
    <trip id="random_trip_128" depart="102.40" from="E0039" to="E0053"/>
    <trip id="random_trip_129" depart="103.20" from="E0058" to="E0108"/>
    <trip id="random_trip_130" depart="104.00" from="E0104" to="E0104"/>
    <trip id="random_trip_131" depart="104.80" from="E0074" to="E0046"/>
    <trip id="random_trip_132" depart="105.60" from="E0102" to="E0093"/>
    <trip id="random_trip_133" depart="106.40" from="E0087" to="ab5ff696-0dfa-404f-a9db-d8f7d15073c2_1"/>
    <trip id="random_trip_134" depart="107.20" from="E0091" to="E0011"/>
    <trip id="random_trip_135" depart="108.00" from="E0101" to="E0062"/>
    <trip id="random_trip_136" depart="108.80" from="E0091" to="E0108"/>
    <trip id="random_trip_137" depart="109.60" from="E0045" to="E0043"/>
    <trip id="random_trip_138" depart="110.40" from="E0043" to="E0083"/>
    <trip id="random_trip_139" depart="111.20" from="E0060" to="E0087"/>
    <trip id="random_trip_140" depart="112.00" from="E0094" to="E0052"/>
    <trip id="random_trip_141" depart="112.80" from="E0088" to="E0058"/>
    <trip id="random_trip_142" depart="113.60" from="E0080" to="E0106"/>
    <trip id="random_trip_143" depart="114.40" from="E0102" to="E0039"/>
    <trip id="random_trip_144" depart="115.20" from="E0077" to="E0060"/>
    <trip id="random_trip_145" depart="116.00" from="E0011" to="E0099"/>
    <trip id="random_trip_146" depart="116.80" from="E0090" to="E0058"/>
    <trip id="random_trip_147" depart="117.60" from="E0095" to="E0083"/>
    <trip id="random_trip_148" depart="118.40" from="E0077" to="E0011"/>
    <trip id="random_trip_149" depart="119.20" from="E0039" to="E0104"/>
    <trip id="random_trip_150" depart="120.00" from="E0106" to="E0083"/>
    <trip id="random_trip_151" depart="120.80" from="E0102" to="E0085"/>
    <trip id="random_trip_152" depart="121.60" from="E0046" to="E0043"/>
    <trip id="random_trip_153" depart="122.40" from="E0066" to="E0105"/>
    <trip id="random_trip_154" depart="123.20" from="E0100" to="E0103"/>
    <trip id="random_trip_155" depart="124.00" from="E0105" to="E0052"/>
    <trip id="random_trip_156" depart="124.80" from="E0056" to="E0041"/>
    <trip id="random_trip_157" depart="125.60" from="E0099" to="E0104"/>
    <trip id="random_trip_158" depart="126.40" from="E0076" to="E0088"/>
    <trip id="random_trip_159" depart="127.20" from="E0048" to="E0108"/>
    <trip id="random_trip_160" depart="128.00" from="E0103" to="E0111"/>
    <trip id="random_trip_161" depart="128.80" from="E0101" to="E0104"/>
    <trip id="random_trip_162" depart="129.60" from="E0013" to="E0095"/>
    <trip id="random_trip_163" depart="130.40" from="E0068" to="E0108"/>
    <trip id="random_trip_164" depart="131.20" from="E0100" to="E0103"/>
    <trip id="random_trip_165" depart="132.00" from="E0101" to="E0058"/>
    <trip id="random_trip_166" depart="132.80" from="E0099" to="E0041"/>
    <trip id="random_trip_167" depart="133.60" from="E0104" to="E0103"/>
    <trip id="random_trip_168" depart="134.40" from="E0054" to="E0101"/>
    <trip id="random_trip_169" depart="135.20" from="E0078" to="E0062"/>
    <trip id="random_trip_170" depart="136.00" from="E0100" to="E0053"/>
    <trip id="random_trip_171" depart="136.80" from="E0013" to="E0052"/>
    <trip id="random_trip_172" depart="137.60" from="E0068" to="E0103"/>
    <trip id="random_trip_173" depart="138.40" from="E0111" to="E0060"/>
    <trip id="random_trip_174" depart="139.20" from="E0090" to="E0075"/>
    <trip id="random_trip_175" depart="140.00" from="ab5ff696-0dfa-404f-a9db-d8f7d15073c2_1" to="E0082"/>
    <trip id="random_trip_176" depart="140.80" from="E0108" to="E0041"/>
    <trip id="random_trip_177" depart="141.60" from="E0111" to="E0048"/>
    <trip id="random_trip_178" depart="142.40" from="E0111" to="E0058"/>
    <trip id="random_trip_179" depart="143.20" from="E0043" to="E0077"/>
    <trip id="random_trip_180" depart="144.00" from="E0094" to="E0066"/>
    <trip id="random_trip_181" depart="144.80" from="E0087" to="E0081"/>
    <trip id="random_trip_182" depart="145.60" from="E0075" to="E0084"/>
    <trip id="random_trip_183" depart="146.40" from="E0058" to="E0093"/>
    <trip id="random_trip_184" depart="147.20" from="E0011" to="E0108"/>
    <trip id="random_trip_185" depart="148.00" from="E0082" to="E0094"/>
    <trip id="random_trip_186" depart="148.80" from="E0095" to="E0091"/>
    <trip id="random_trip_187" depart="149.60" from="E0072" to="E0031"/>
    <trip id="random_trip_188" depart="150.40" from="E0091" to="E0068"/>
    <trip id="random_trip_189" depart="151.20" from="E0066" to="E0103"/>
    <trip id="random_trip_190" depart="152.00" from="E0094" to="E0062"/>
    <trip id="random_trip_191" depart="152.80" from="E0066" to="E0076"/>
    <trip id="random_trip_192" depart="153.60" from="E0075" to="E0062"/>
    <trip id="random_trip_193" depart="154.40" from="E0045" to="E0076"/>
    <trip id="random_trip_194" depart="155.20" from="E0108" to="E0092"/>
    <trip id="random_trip_195" depart="156.00" from="E0105" to="E0088"/>
    <trip id="random_trip_196" depart="156.80" from="E0062" to="E0083"/>
    <trip id="random_trip_197" depart="157.60" from="E0011" to="E0060"/>
    <trip id="random_trip_198" depart="158.40" from="E0077" to="E0085"/>
    <trip id="random_trip_199" depart="159.20" from="E0091" to="E0079"/>
    <trip id="random_trip_200" depart="160.00" from="E0077" to="E0053"/>
    <trip id="random_trip_201" depart="160.80" from="E0079" to="E0105"/>
    <trip id="random_trip_202" depart="161.60" from="E0100" to="E0046"/>
    <trip id="random_trip_203" depart="162.40" from="E0041" to="E0081"/>
    <trip id="random_trip_204" depart="163.20" from="E0088" to="E0068"/>
    <trip id="random_trip_205" depart="164.00" from="E0101" to="E0096"/>
    <trip id="random_trip_206" depart="164.80" from="E0091" to="E0053"/>
    <trip id="random_trip_207" depart="165.60" from="E0053" to="E0013"/>
    <trip id="random_trip_208" depart="166.40" from="E0056" to="E0079"/>
    <trip id="random_trip_209" depart="167.20" from="E0103" to="E0031"/>
    <trip id="random_trip_210" depart="168.00" from="E0076" to="E0088"/>
    <trip id="random_trip_211" depart="168.80" from="E0053" to="E0093"/>
    <trip id="random_trip_212" depart="169.60" from="E0080" to="E0056"/>
    <trip id="random_trip_213" depart="170.40" from="E0091" to="E0011"/>
    <trip id="random_trip_214" depart="171.20" from="E0096" to="E0099"/>
    <trip id="random_trip_215" depart="172.00" from="E0043" to="E0077"/>
    <trip id="random_trip_216" depart="172.80" from="E0052" to="E0109"/>
    <trip id="random_trip_217" depart="173.60" from="E0081" to="E0023"/>
    <trip id="random_trip_218" depart="174.40" from="E0056" to="E0103"/>
    <trip id="random_trip_219" depart="175.20" from="E0078" to="E0100"/>
    <trip id="random_trip_220" depart="176.00" from="E0091" to="ab5ff696-0dfa-404f-a9db-d8f7d15073c2_1"/>
    <trip id="random_trip_221" depart="176.80" from="E0085" to="E0109"/>
    <trip id="random_trip_222" depart="177.60" from="E0105" to="E0087"/>
    <trip id="random_trip_223" depart="178.40" from="E0094" to="E0081"/>
    <trip id="random_trip_224" depart="179.20" from="E0102" to="E0083"/>
    <trip id="random_trip_225" depart="180.00" from="E0105" to="E0095"/>
    <trip id="random_trip_226" depart="180.80" from="E0079" to="E0058"/>
    <trip id="random_trip_227" depart="181.60" from="E0056" to="E0090"/>
    <trip id="random_trip_228" depart="182.40" from="E0096" to="E0082"/>
    <trip id="random_trip_229" depart="183.20" from="E0088" to="E0060"/>
    <trip id="random_trip_230" depart="184.00" from="E0041" to="E0060"/>
    <trip id="random_trip_231" depart="184.80" from="E0060" to="E0066"/>
    <trip id="random_trip_232" depart="185.60" from="E0083" to="E0045"/>
    <trip id="random_trip_233" depart="186.40" from="E0056" to="E0093"/>
    <trip id="random_trip_234" depart="187.20" from="E0093" to="E0031"/>
    <trip id="random_trip_235" depart="188.00" from="E0076" to="E0083"/>
    <trip id="random_trip_236" depart="188.80" from="E0076" to="E0052"/>
    <trip id="random_trip_237" depart="189.60" from="E0076" to="E0106"/>
    <trip id="random_trip_238" depart="190.40" from="E0085" to="E0093"/>
    <trip id="random_trip_239" depart="191.20" from="E0103" to="E0096"/>
    <trip id="random_trip_240" depart="192.00" from="E0074" to="E0011"/>
    <trip id="random_trip_241" depart="192.80" from="E0072" to="E0096"/>
    <trip id="random_trip_242" depart="193.60" from="E0103" to="E0109"/>
    <trip id="random_trip_243" depart="194.40" from="E0076" to="E0095"/>
    <trip id="random_trip_244" depart="195.20" from="E0083" to="E0087"/>
    <trip id="random_trip_245" depart="196.00" from="E0054" to="E0053"/>
    <trip id="random_trip_246" depart="196.80" from="E0077" to="E0013"/>
    <trip id="random_trip_247" depart="197.60" from="E0068" to="E0092"/>
    <trip id="random_trip_248" depart="198.40" from="E0076" to="E0046"/>
    <trip id="random_trip_249" depart="199.20" from="E0079" to="E0043"/>
</routes>
