<configuration><input><net-file value="sim_6.net.xml" /><route-files value="sim_6.rou.xml" /></input><time><begin value="0" /></time></configuration>