<?xml version="1.0" encoding="UTF-8"?>

<!-- generated on 2023-06-26 02:05:30 by Eclipse SUMO netconvert Version 1.16.0
<configuration xmlns:xsi="http://www.w3.org/2001/XMLSchema-instance" xsi:noNamespaceSchemaLocation="http://sumo.dlr.de/xsd/netconvertConfiguration.xsd">

    <input>
        <node-files value="data/simulationConfigurations/tests/22\22.nod.xml"/>
        <edge-files value="data/simulationConfigurations/tests/22\22.edg.xml"/>
    </input>

    <output>
        <output-file value="data/simulationConfigurations/tests/22\22.net.xml"/>
    </output>

</configuration>
-->

<net version="1.16" junctionCornerDetail="5" limitTurnSpeed="5.50" xmlns:xsi="http://www.w3.org/2001/XMLSchema-instance" xsi:noNamespaceSchemaLocation="http://sumo.dlr.de/xsd/net_file.xsd">

    <location netOffset="-47.76,-47.49" convBoundary="0.00,0.00,841.98,840.33" origBoundary="47.76,47.49,889.74,887.82" projParameter="!"/>

    <edge id=":V0001_0" function="internal">
        <lane id=":V0001_0_0" index="0" speed="5.64" length="9.27" shape="635.81,500.99 638.40,502.05 640.22,501.83 641.27,500.33 641.56,497.54"/>
        <lane id=":V0001_0_1" index="1" speed="7.40" length="16.98" shape="634.22,503.77 638.96,505.71 642.30,505.30 644.23,502.55 644.76,497.45"/>
    </edge>
    <edge id=":V0001_2" function="internal">
        <lane id=":V0001_2_0" index="0" speed="10.42" length="21.48" shape="634.22,503.77 642.06,508.04 647.94,510.75 651.85,511.91 653.80,511.52"/>
    </edge>
    <edge id=":V0001_3" function="internal">
        <lane id=":V0001_3_0" index="0" speed="10.17" length="24.45" shape="632.63,506.55 641.09,511.79 646.70,516.22 649.45,519.84 649.34,522.64"/>
    </edge>
    <edge id=":V0001_4" function="internal">
        <lane id=":V0001_4_0" index="0" speed="10.36" length="21.04" shape="638.27,516.07 641.29,514.34 643.38,510.66 644.53,505.03 644.76,497.45"/>
        <lane id=":V0001_4_1" index="1" speed="10.80" length="22.93" shape="638.27,516.07 642.68,514.07 645.77,510.29 647.53,504.72 647.96,497.36"/>
    </edge>
    <edge id=":V0001_6" function="internal">
        <lane id=":V0001_6_0" index="0" speed="12.50" length="16.51" shape="638.27,516.07 643.59,515.18 647.80,514.59 651.14,513.61 653.80,511.52"/>
    </edge>
    <edge id=":V0001_7" function="internal">
        <lane id=":V0001_7_0" index="0" speed="6.60" length="14.89" shape="638.95,519.19 645.08,518.22 648.86,518.47 650.28,519.95 649.34,522.64"/>
    </edge>
    <edge id=":V0002_0" function="internal">
        <lane id=":V0002_0_0" index="0" speed="7.93" length="25.55" shape="628.76,42.54 627.85,33.55 625.78,30.05 622.56,32.04 618.18,39.52"/>
    </edge>
    <edge id=":V0002_1" function="internal">
        <lane id=":V0002_1_0" index="0" speed="8.31" length="27.68" shape="631.96,42.45 630.92,33.15 628.49,29.64 624.66,31.92 619.45,39.98"/>
        <lane id=":V0002_1_1" index="1" speed="9.23" length="34.65" shape="631.96,42.45 630.66,30.68 627.64,26.16 622.89,28.88 616.42,38.86"/>
    </edge>
    <edge id=":V0002_3" function="internal">
        <lane id=":V0002_3_0" index="0" speed="12.45" length="41.25" shape="635.16,42.36 634.19,24.81 632.43,12.52 629.88,5.49 626.54,3.72"/>
    </edge>
    <edge id=":V0002_4" function="internal">
        <lane id=":V0002_4_0" index="0" speed="2.93" length="2.02" shape="618.61,39.68 618.74,38.95 618.72,38.68 618.53,38.87 618.18,39.52"/>
    </edge>
    <edge id=":V0002_5" function="internal">
        <lane id=":V0002_5_0" index="0" speed="3.38" length="3.34" shape="621.64,40.80 621.43,42.00 621.50,42.45 621.85,42.15 622.47,41.11"/>
    </edge>
    <edge id=":V0002_6" function="internal">
        <lane id=":V0002_6_0" index="0" speed="10.88" length="36.33" shape="624.67,41.93 627.84,26.11 629.33,14.99 629.14,8.56 627.26,6.84"/>
    </edge>
    <edge id=":V0003_0" function="internal">
        <lane id=":V0003_0_0" index="0" speed="6.53" length="17.27" shape="44.63,141.25 40.66,142.63 40.52,144.07 44.19,145.55 51.70,147.09"/>
        <lane id=":V0003_0_1" index="1" speed="7.82" length="25.66" shape="44.63,141.25 37.56,143.54 36.30,145.80 40.83,148.03 51.17,150.25"/>
        <lane id=":V0003_0_2" index="2" speed="8.95" length="34.22" shape="44.63,141.25 34.46,144.44 32.08,147.53 37.47,150.52 50.65,153.40"/>
    </edge>
    <edge id=":V0003_3" function="internal">
        <lane id=":V0003_3_0" index="0" speed="9.14" length="33.82" shape="44.63,141.25 35.12,144.51 32.80,148.22 37.69,152.40 49.79,157.04"/>
        <lane id=":V0003_3_1" index="1" speed="9.94" length="40.41" shape="44.63,141.25 32.73,145.23 29.47,149.70 34.84,154.66 48.84,160.10"/>
    </edge>
    <edge id=":V0003_5" function="internal">
        <lane id=":V0003_5_0" index="0" speed="10.52" length="41.23" shape="43.91,138.13 32.58,142.32 28.98,147.88 33.10,154.81 44.95,163.11"/>
        <lane id=":V0003_5_1" index="1" speed="11.11" length="46.16" shape="43.91,138.13 30.76,142.89 26.29,149.10 30.48,156.77 43.36,165.88"/>
        <lane id=":V0003_5_2" index="2" speed="11.67" length="51.11" shape="43.91,138.13 28.94,143.46 23.59,150.33 27.87,158.73 41.77,168.66"/>
    </edge>
    <edge id=":V0003_8" function="internal">
        <lane id=":V0003_8_0" index="0" speed="13.21" length="40.86" shape="43.91,138.13 28.44,142.43 17.78,147.08 11.92,152.09 10.86,157.44"/>
        <lane id=":V0003_8_1" index="1" speed="13.68" length="43.88" shape="43.91,138.13 27.08,142.75 15.44,147.63 9.00,152.78 7.75,158.20"/>
        <lane id=":V0003_8_2" index="2" speed="14.14" length="46.92" shape="43.91,138.13 25.72,143.06 13.11,148.18 6.08,153.47 4.64,158.95"/>
    </edge>
    <edge id=":V0004_0" function="internal">
        <lane id=":V0004_0_0" index="0" speed="12.11" length="13.78" shape="496.68,290.11 494.91,294.24 493.87,297.83 493.56,300.85 493.98,303.33"/>
    </edge>
    <edge id=":V0004_1" function="internal">
        <lane id=":V0004_1_0" index="0" speed="8.71" length="11.09" shape="496.68,290.11 494.10,293.43 490.33,295.93 488.06,296.58"/>
    </edge>
    <edge id=":V0004_6" function="internal">
        <lane id=":V0004_6_0" index="0" speed="8.71" length="5.92" shape="488.06,296.58 486.12,297.14 482.26,296.54"/>
    </edge>
    <edge id=":V0004_2" function="internal">
        <lane id=":V0004_2_0" index="0" speed="11.87" length="16.52" shape="483.28,291.52 486.68,293.10 489.60,295.60 492.03,299.01 493.98,303.33"/>
    </edge>
    <edge id=":V0004_3" function="internal">
        <lane id=":V0004_3_0" index="0" speed="2.92" length="2.05" shape="482.08,294.50 482.26,296.54"/>
    </edge>
    <edge id=":V0004_4" function="internal">
        <lane id=":V0004_4_0" index="0" speed="3.29" length="2.09" shape="480.19,296.75 482.26,296.54"/>
    </edge>
    <edge id=":V0004_5" function="internal">
        <lane id=":V0004_5_0" index="0" speed="7.18" length="0.77" shape="482.12,299.30 482.85,299.06"/>
    </edge>
    <edge id=":V0004_7" function="internal">
        <lane id=":V0004_7_0" index="0" speed="7.18" length="13.08" shape="482.85,299.06 485.18,298.31 488.77,298.90 492.00,300.69 493.98,303.33"/>
    </edge>
    <edge id=":V0006_0" function="internal">
        <lane id=":V0006_0_0" index="0" speed="11.72" length="32.37" shape="462.03,827.23 457.75,830.79 451.50,831.15 443.28,828.31 433.10,822.27"/>
        <lane id=":V0006_0_1" index="1" speed="10.79" length="27.29" shape="459.34,825.51 456.00,827.97 450.82,827.81 443.78,825.03 434.90,819.62"/>
        <lane id=":V0006_0_2" index="2" speed="10.42" length="25.40" shape="459.34,825.51 456.76,826.79 452.13,825.80 445.45,822.53 436.71,816.98"/>
    </edge>
    <edge id=":V0006_3" function="internal">
        <lane id=":V0006_3_0" index="0" speed="9.00" length="27.78" shape="459.34,825.51 454.95,828.63 450.02,826.52 444.88,820.76 439.87,812.91"/>
        <lane id=":V0006_3_1" index="1" speed="8.99" length="24.84" shape="459.34,825.51 456.01,827.23 451.88,824.55 447.29,818.80 442.64,811.31"/>
    </edge>
    <edge id=":V0006_5" function="internal">
        <lane id=":V0006_5_0" index="0" speed="7.12" length="21.28" shape="456.64,823.78 453.12,825.99 450.08,823.04 448.28,817.12 448.45,810.41"/>
        <lane id=":V0006_5_1" index="1" speed="6.66" length="18.36" shape="456.64,823.78 453.90,825.54 451.96,822.62 451.10,817.11 451.58,811.10"/>
        <lane id=":V0006_5_2" index="2" speed="6.28" length="16.13" shape="456.64,823.78 454.60,825.24 453.76,822.39 453.88,817.25 454.70,811.79"/>
    </edge>
    <edge id=":V0007_0" function="internal">
        <lane id=":V0007_0_0" index="0" speed="5.55" length="11.38" shape="266.28,213.76 265.51,209.92 264.40,208.53 262.98,209.59 261.23,213.09"/>
    </edge>
    <edge id=":V0007_1" function="internal">
        <lane id=":V0007_1_0" index="0" speed="9.24" length="20.26" shape="273.58,199.01 270.72,198.88 267.71,201.18 264.54,205.92 261.23,213.09"/>
    </edge>
    <edge id=":V0007_2" function="internal">
        <lane id=":V0007_2_0" index="0" speed="11.05" length="19.20" shape="265.73,182.60 268.50,185.56 268.17,192.28 265.89,200.38"/>
    </edge>
    <edge id=":V0007_3" function="internal">
        <lane id=":V0007_3_0" index="0" speed="11.05" length="13.54" shape="265.89,200.38 265.50,201.77 261.23,213.09"/>
    </edge>
    <edge id=":V0008_0" function="internal">
        <lane id=":V0008_0_0" index="0" speed="11.45" length="37.55" shape="106.21,598.46 105.12,594.23 109.51,587.88 117.91,580.03 128.85,571.34"/>
    </edge>
    <edge id=":V0008_1" function="internal">
        <lane id=":V0008_1_0" index="0" speed="5.51" length="11.07" shape="124.71,568.18 123.59,571.78 123.91,573.51 125.66,573.37 128.85,571.34"/>
    </edge>
    <edge id=":V0008_2" function="internal">
        <lane id=":V0008_2_0" index="0" speed="8.69" length="22.23" shape="111.10,570.81 113.28,575.28 116.97,576.85 122.16,575.54 128.85,571.34"/>
    </edge>
    <edge id=":V0010_0" function="internal">
        <lane id=":V0010_0_0" index="0" speed="10.50" length="16.14" shape="318.24,602.29 316.13,597.64 315.30,593.77 315.12,590.26 314.90,586.70"/>
    </edge>
    <edge id=":V0010_1" function="internal">
        <lane id=":V0010_1_0" index="0" speed="9.00" length="46.05" shape="321.02,600.69 319.72,593.52 323.68,585.60 332.88,576.91 347.33,567.46"/>
        <lane id=":V0010_1_1" index="1" speed="9.00" length="44.11" shape="321.02,600.69 320.42,594.74 324.88,587.68 334.38,579.51 348.92,570.24"/>
    </edge>
    <edge id=":V0010_3" function="internal">
        <lane id=":V0010_3_0" index="0" speed="8.81" length="21.56" shape="321.02,600.69 319.15,595.53 320.08,591.35 323.80,588.16 330.33,585.95"/>
    </edge>
    <edge id=":V0010_4" function="internal">
        <lane id=":V0010_4_0" index="0" speed="5.50" length="10.94" shape="341.96,561.02 340.48,564.43 340.61,566.18 342.36,566.26 345.73,564.69"/>
    </edge>
    <edge id=":V0010_5" function="internal">
        <lane id=":V0010_5_0" index="0" speed="9.24" length="29.69" shape="339.14,559.50 332.97,571.58 329.44,580.01 328.56,584.80 330.33,585.95"/>
    </edge>
    <edge id=":V0010_6" function="internal">
        <lane id=":V0010_6_0" index="0" speed="7.00" length="38.14" shape="336.32,557.98 329.12,570.91 322.41,581.71 317.30,587.83 314.90,586.70"/>
    </edge>
    <edge id=":V0011_0" function="internal">
        <lane id=":V0011_0_0" index="0" speed="15.50" length="13.58" shape="639.05,408.34 638.67,394.76"/>
        <lane id=":V0011_0_1" index="1" speed="15.50" length="13.58" shape="642.25,408.25 641.86,394.67"/>
        <lane id=":V0011_0_2" index="2" speed="15.50" length="13.58" shape="645.44,408.16 645.06,394.58"/>
    </edge>
    <edge id=":V0011_3" function="internal">
        <lane id=":V0011_3_0" index="0" speed="9.37" length="12.35" shape="645.44,408.16 645.61,404.28 646.36,401.14 647.69,398.75 649.60,397.12"/>
    </edge>
    <edge id=":V0011_4" function="internal">
        <lane id=":V0011_4_0" index="0" speed="8.71" length="10.58" shape="632.92,403.03 635.48,401.24 637.30,399.27 638.36,397.11 638.67,394.76"/>
        <lane id=":V0011_4_1" index="1" speed="9.96" length="14.03" shape="634.51,405.80 637.80,403.48 640.12,400.85 641.48,397.91 641.86,394.67"/>
    </edge>
    <edge id=":V0011_6" function="internal">
        <lane id=":V0011_6_0" index="0" speed="7.00" length="17.41" shape="634.51,405.80 649.60,397.12"/>
    </edge>
    <edge id=":V0012_0" function="internal">
        <lane id=":V0012_0_0" index="0" speed="13.13" length="19.86" shape="604.87,592.13 603.97,594.99 604.09,599.15 605.22,604.62 607.37,611.41"/>
    </edge>
    <edge id=":V0012_1" function="internal">
        <lane id=":V0012_1_0" index="0" speed="9.00" length="19.96" shape="604.87,592.13 603.72,595.80 603.39,600.39 602.53,605.82 599.78,611.96"/>
        <lane id=":V0012_1_1" index="1" speed="9.00" length="19.96" shape="604.87,592.13 603.27,595.57 601.96,599.65 600.17,604.50 597.09,610.24"/>
        <lane id=":V0012_1_2" index="2" speed="9.00" length="19.96" shape="604.87,592.13 594.39,608.51"/>
    </edge>
    <edge id=":V0012_4" function="internal">
        <lane id=":V0012_4_0" index="0" speed="13.50" length="21.02" shape="600.30,591.61 607.37,611.41"/>
        <lane id=":V0012_4_1" index="1" speed="13.50" length="21.02" shape="597.29,592.69 604.36,612.48"/>
    </edge>
    <edge id=":V0012_6" function="internal">
        <lane id=":V0012_6_0" index="0" speed="7.50" length="18.14" shape="597.29,592.69 598.76,597.94 599.21,602.61 598.66,606.71 597.09,610.24"/>
        <lane id=":V0012_6_1" index="1" speed="7.50" length="16.65" shape="597.29,592.69 598.08,596.40 597.86,600.27 596.63,604.31 594.39,608.51"/>
    </edge>
    <edge id=":V0013_0" function="internal">
        <lane id=":V0013_0_0" index="0" speed="16.00" length="11.14" shape="298.07,448.46 296.74,445.75 294.33,444.18 291.90,442.42 290.49,439.14"/>
        <lane id=":V0013_0_1" index="1" speed="16.00" length="11.14" shape="298.07,448.46 297.22,445.60 295.89,443.73 294.54,441.81 293.67,438.76"/>
        <lane id=":V0013_0_2" index="2" speed="16.00" length="11.14" shape="298.07,448.46 296.84,438.37"/>
    </edge>
    <edge id=":V0013_3" function="internal">
        <lane id=":V0013_3_0" index="0" speed="7.00" length="9.25" shape="298.07,448.46 298.06,446.06 298.62,443.91 299.77,442.00 301.51,440.34"/>
    </edge>
    <edge id=":V0013_4" function="internal">
        <lane id=":V0013_4_0" index="0" speed="9.10" length="11.14" shape="288.99,449.84 290.05,448.44 290.65,446.19 290.80,443.09 290.49,439.14"/>
    </edge>
    <edge id=":V0013_5" function="internal">
        <lane id=":V0013_5_0" index="0" speed="11.00" length="15.71" shape="288.99,449.84 301.51,440.34"/>
    </edge>
    <edge id=":V0014_0" function="internal">
        <lane id=":V0014_0_0" index="0" speed="9.44" length="13.52" shape="501.47,548.93 505.23,547.74 508.11,545.98 510.13,543.65 511.27,540.74"/>
    </edge>
    <edge id=":V0014_1" function="internal">
        <lane id=":V0014_1_0" index="0" speed="22.50" length="17.16" shape="501.47,548.93 518.25,545.30"/>
    </edge>
    <edge id=":V0014_2" function="internal">
        <lane id=":V0014_2_0" index="0" speed="16.50" length="13.57" shape="505.33,552.80 506.66,549.07 508.30,546.77 509.93,544.47 511.27,540.74"/>
        <lane id=":V0014_2_1" index="1" speed="16.50" length="13.57" shape="508.45,553.49 509.79,549.76 511.42,547.46 513.06,545.16 514.39,541.43"/>
    </edge>
    <edge id=":V0014_4" function="internal">
        <lane id=":V0014_4_0" index="0" speed="8.82" length="11.72" shape="511.58,554.18 512.64,550.70 514.11,548.06 515.98,546.26 518.25,545.30"/>
    </edge>
    <edge id=":V0015_0" function="internal">
        <lane id=":V0015_0_0" index="0" speed="3.37" length="1.61" shape="482.08,296.45 481.93,294.85"/>
    </edge>
    <edge id=":V0015_1" function="internal">
        <lane id=":V0015_1_0" index="0" speed="21.00" length="10.07" shape="482.08,296.45 479.25,295.64 477.05,295.79 474.82,295.94 471.92,295.09"/>
        <lane id=":V0015_1_1" index="1" speed="21.00" length="10.07" shape="482.08,296.45 473.32,292.21"/>
    </edge>
    <edge id=":V0015_3" function="internal">
        <lane id=":V0015_3_0" index="0" speed="13.00" length="6.66" shape="486.77,292.62 485.66,293.63 484.35,293.74 483.04,293.84 481.93,294.85"/>
        <lane id=":V0015_3_1" index="1" speed="13.00" length="6.66" shape="486.77,292.62 479.11,293.33"/>
    </edge>
    <edge id=":V0015_5" function="internal">
        <lane id=":V0015_5_0" index="0" speed="8.16" length="14.32" shape="483.96,291.10 481.63,294.27 478.85,295.99 475.61,296.26 471.92,295.09"/>
        <lane id=":V0015_5_1" index="1" speed="6.70" length="9.32" shape="481.14,289.58 479.62,291.65 477.81,292.78 475.71,292.97 473.32,292.21"/>
    </edge>
    <edge id=":V0016_0" function="internal">
        <lane id=":V0016_0_0" index="0" speed="7.63" length="13.61" shape="259.86,216.50 258.95,220.18 259.47,223.17 261.42,225.48 264.81,227.09"/>
    </edge>
    <edge id=":V0016_1" function="internal">
        <lane id=":V0016_1_0" index="0" speed="15.00" length="15.11" shape="259.86,216.50 259.56,219.89 260.53,223.38 261.29,227.37 260.39,232.27"/>
        <lane id=":V0016_1_1" index="1" speed="15.00" length="15.11" shape="259.86,216.50 259.07,219.77 258.97,222.95 258.71,226.55 257.42,231.07"/>
        <lane id=":V0016_1_2" index="2" speed="15.00" length="15.11" shape="259.86,216.50 254.45,229.87"/>
    </edge>
    <edge id=":V0016_4" function="internal">
        <lane id=":V0016_4_0" index="0" speed="18.50" length="14.77" shape="252.07,219.79 256.35,221.64 259.28,223.70 261.79,225.63 264.81,227.09"/>
    </edge>
    <edge id=":V0016_5" function="internal">
        <lane id=":V0016_5_0" index="0" speed="7.17" length="11.88" shape="251.12,222.85 254.72,224.36 256.97,226.23 257.87,228.47 257.42,231.07"/>
        <lane id=":V0016_5_1" index="1" speed="6.33" length="9.04" shape="251.12,222.85 253.39,223.92 254.70,225.45 255.05,227.43 254.45,229.87"/>
    </edge>
    <edge id=":V0017_0" function="internal">
        <lane id=":V0017_0_0" index="0" speed="8.48" length="9.58" shape="537.48,452.13 539.96,453.26 542.31,453.74 544.52,453.56 546.60,452.73"/>
    </edge>
    <edge id=":V0017_1" function="internal">
        <lane id=":V0017_1_0" index="0" speed="19.50" length="10.66" shape="537.48,452.13 540.30,453.17 542.63,453.24 545.03,453.34 548.05,454.49"/>
        <lane id=":V0017_1_1" index="1" speed="19.50" length="10.66" shape="537.48,452.13 546.46,457.27"/>
    </edge>
    <edge id=":V0017_3" function="internal">
        <lane id=":V0017_3_0" index="0" speed="7.50" length="11.44" shape="536.43,454.89 539.29,453.82 541.52,453.81 543.75,453.79 546.60,452.73"/>
        <lane id=":V0017_3_1" index="1" speed="7.50" length="11.44" shape="536.43,454.89 539.71,454.16 542.32,455.19 544.92,456.23 548.20,455.50"/>
    </edge>
    <edge id=":V0017_5" function="internal">
        <lane id=":V0017_5_0" index="0" speed="8.97" length="10.78" shape="538.03,457.66 541.56,455.79 544.41,454.64 546.58,454.21 548.05,454.49"/>
        <lane id=":V0017_5_1" index="1" speed="7.61" length="7.60" shape="539.63,460.44 540.94,459.66 543.04,458.48 545.15,457.49 546.46,457.27"/>
    </edge>
    <edge id=":V0018_0" function="internal">
        <lane id=":V0018_0_0" index="0" speed="6.78" length="8.91" shape="576.33,524.48 577.41,526.43 578.98,527.65 581.04,528.13 583.61,527.89"/>
        <lane id=":V0018_0_1" index="1" speed="8.24" length="13.60" shape="573.32,525.55 574.98,528.62 577.36,530.56 580.46,531.36 584.28,531.02"/>
    </edge>
    <edge id=":V0018_2" function="internal">
        <lane id=":V0018_2_0" index="0" speed="7.50" length="13.72" shape="573.32,525.55 575.15,529.20 577.09,531.36 579.03,533.52 580.86,537.17"/>
        <lane id=":V0018_2_1" index="1" speed="7.50" length="13.72" shape="573.32,525.55 577.85,538.25"/>
    </edge>
    <edge id=":V0018_4" function="internal">
        <lane id=":V0018_4_0" index="0" speed="17.50" length="13.90" shape="570.70,533.96 584.28,531.02"/>
    </edge>
    <edge id=":V0018_5" function="internal">
        <lane id=":V0018_5_0" index="0" speed="6.90" length="9.25" shape="570.70,533.96 573.10,533.80 575.10,534.47 576.68,535.95 577.85,538.25"/>
    </edge>
    <edge id=":V0019_0" function="internal">
        <lane id=":V0019_0_0" index="0" speed="13.50" length="18.52" shape="268.98,235.94 266.75,217.56"/>
        <lane id=":V0019_0_1" index="1" speed="13.50" length="18.52" shape="272.16,235.56 269.92,217.17"/>
    </edge>
    <edge id=":V0019_2" function="internal">
        <lane id=":V0019_2_0" index="0" speed="6.69" length="12.71" shape="272.16,235.56 272.10,231.37 273.14,228.71 275.28,227.59 278.51,227.99"/>
        <lane id=":V0019_2_1" index="1" speed="5.79" length="9.15" shape="272.16,235.56 272.20,232.87 273.12,231.22 274.90,230.61 277.56,231.05"/>
    </edge>
    <edge id=":V0019_4" function="internal">
        <lane id=":V0019_4_0" index="0" speed="6.22" length="10.78" shape="265.00,227.15 266.25,226.91 266.95,225.22 267.12,222.11 266.75,217.56"/>
    </edge>
    <edge id=":V0019_5" function="internal">
        <lane id=":V0019_5_0" index="0" speed="18.50" length="13.91" shape="265.00,227.15 268.29,227.13 271.40,225.79 274.92,224.58 279.46,224.94"/>
        <lane id=":V0019_5_1" index="1" speed="18.50" length="13.91" shape="265.00,227.15 268.22,227.63 271.12,227.38 274.34,227.22 278.51,227.99"/>
        <lane id=":V0019_5_2" index="2" speed="18.50" length="13.91" shape="265.00,227.15 277.56,231.05"/>
    </edge>
    <edge id=":V0020_0" function="internal">
        <lane id=":V0020_0_0" index="0" speed="4.44" length="6.83" shape="478.37,294.72 477.30,297.02 477.22,298.14 478.13,298.10 480.03,296.87"/>
    </edge>
    <edge id=":V0020_1" function="internal">
        <lane id=":V0020_1_0" index="0" speed="14.00" length="33.69" shape="478.37,294.72 476.77,299.78 475.04,307.63 472.41,317.13 468.14,327.15"/>
        <lane id=":V0020_1_1" index="1" speed="14.00" length="33.69" shape="478.37,294.72 476.33,299.55 473.63,306.87 470.03,315.85 465.32,325.63"/>
        <lane id=":V0020_1_2" index="2" speed="14.00" length="33.69" shape="478.37,294.72 462.51,324.11"/>
    </edge>
    <edge id=":V0020_4" function="internal">
        <lane id=":V0020_4_0" index="0" speed="13.50" length="31.54" shape="458.84,320.98 462.46,317.61 467.42,312.46 473.87,306.19 481.96,299.42"/>
        <lane id=":V0020_4_1" index="1" speed="13.50" length="31.54" shape="458.84,320.98 483.90,301.97"/>
    </edge>
    <edge id=":V0020_6" function="internal">
        <lane id=":V0020_6_0" index="0" speed="6.50" length="4.91" shape="458.84,320.98 462.94,318.27"/>
        <lane id=":V0020_6_1" index="1" speed="5.67" length="4.58" shape="458.84,320.98 462.47,318.59 462.71,318.56"/>
    </edge>
    <edge id=":V0020_8" function="internal">
        <lane id=":V0020_8_0" index="0" speed="6.50" length="15.48" shape="462.94,318.27 464.96,316.94 468.08,316.37 468.20,319.26 465.32,325.63"/>
    </edge>
    <edge id=":V0020_9" function="internal">
        <lane id=":V0020_9_0" index="0" speed="5.67" length="7.78" shape="462.71,318.56 464.29,318.32 464.30,320.16 462.51,324.11"/>
    </edge>
    <edge id=":V0021_0" function="internal">
        <lane id=":V0021_0_0" index="0" speed="5.95" length="9.09" shape="523.31,444.03 525.73,444.99 527.66,444.82 529.08,443.51 530.00,441.06"/>
    </edge>
    <edge id=":V0021_1" function="internal">
        <lane id=":V0021_1_0" index="0" speed="23.00" length="16.13" shape="523.31,444.03 537.31,452.04"/>
    </edge>
    <edge id=":V0021_2" function="internal">
        <lane id=":V0021_2_0" index="0" speed="9.50" length="11.93" shape="527.47,452.53 530.00,441.06"/>
        <lane id=":V0021_2_1" index="1" speed="9.50" length="11.93" shape="530.59,453.22 533.12,441.75"/>
        <lane id=":V0021_2_2" index="2" speed="9.50" length="11.93" shape="530.59,453.22 531.84,449.86 533.42,447.83 534.99,445.80 536.25,442.44"/>
    </edge>
    <edge id=":V0021_5" function="internal">
        <lane id=":V0021_5_0" index="0" speed="4.64" length="5.02" shape="533.71,453.91 534.23,452.48 535.00,451.70 536.02,451.55 537.31,452.04"/>
    </edge>
    <edge id=":V0022_0" function="internal">
        <lane id=":V0022_0_0" index="0" speed="8.76" length="15.44" shape="244.98,270.42 243.19,275.72 242.58,279.88 243.13,282.91 244.86,284.80"/>
    </edge>
    <edge id=":V0022_1" function="internal">
        <lane id=":V0022_1_0" index="0" speed="16.00" length="17.98" shape="244.98,270.42 238.24,287.09"/>
        <lane id=":V0022_1_1" index="1" speed="16.00" length="17.98" shape="242.01,269.22 235.28,285.89"/>
        <lane id=":V0022_1_2" index="2" speed="16.00" length="17.98" shape="239.04,268.02 232.31,284.70"/>
    </edge>
    <edge id=":V0022_4" function="internal">
        <lane id=":V0022_4_0" index="0" speed="15.50" length="19.31" shape="232.43,270.32 237.25,274.23 240.12,278.40 242.25,282.16 244.86,284.80"/>
    </edge>
    <edge id=":V0022_5" function="internal">
        <lane id=":V0022_5_0" index="0" speed="8.65" length="15.03" shape="230.84,273.09 234.04,275.57 235.85,278.53 236.26,281.97 235.28,285.89"/>
        <lane id=":V0022_5_1" index="1" speed="7.28" length="10.36" shape="229.25,275.87 231.46,277.58 232.70,279.62 232.99,281.99 232.31,284.70"/>
    </edge>
    <edge id=":V0023_0" function="internal">
        <lane id=":V0023_0_0" index="0" speed="11.45" length="10.30" shape="554.18,452.92 555.51,455.46 557.15,456.70 559.27,457.52 562.08,458.83"/>
        <lane id=":V0023_0_1" index="1" speed="12.60" length="12.54" shape="551.17,453.99 552.74,457.15 554.63,458.80 557.11,459.95 560.49,461.61"/>
    </edge>
    <edge id=":V0023_2" function="internal">
        <lane id=":V0023_2_0" index="0" speed="15.00" length="14.03" shape="548.15,455.07 550.02,458.80 551.98,461.02 553.94,463.24 555.80,466.98"/>
        <lane id=":V0023_2_1" index="1" speed="15.00" length="14.03" shape="548.15,455.07 552.79,468.05"/>
    </edge>
    <edge id=":V0023_4" function="internal">
        <lane id=":V0023_4_0" index="0" speed="14.00" length="14.44" shape="548.23,454.59 552.16,456.27 555.15,456.71 558.15,457.15 562.08,458.83"/>
        <lane id=":V0023_4_1" index="1" speed="14.00" length="14.44" shape="546.64,457.37 550.57,459.04 553.56,459.49 556.56,459.93 560.49,461.61"/>
        <lane id=":V0023_4_2" index="2" speed="14.00" length="14.44" shape="546.64,457.37 558.90,464.38"/>
    </edge>
    <edge id=":V0023_7" function="internal">
        <lane id=":V0023_7_0" index="0" speed="9.50" length="12.83" shape="546.64,457.37 549.56,459.51 550.94,461.68 551.71,464.37 552.79,468.05"/>
    </edge>
    <edge id=":V0024_0" function="internal">
        <lane id=":V0024_0_0" index="0" speed="8.50" length="14.64" shape="519.58,464.59 522.32,462.56 524.53,459.90 526.23,456.62 527.42,452.72"/>
        <lane id=":V0024_0_1" index="1" speed="8.50" length="17.29" shape="521.18,467.36 524.47,464.94 527.12,461.80 529.15,457.96 530.55,453.41"/>
    </edge>
    <edge id=":V0024_2" function="internal">
        <lane id=":V0024_2_0" index="0" speed="5.50" length="19.81" shape="522.78,470.14 527.35,466.35 529.52,462.56 531.68,458.78 536.26,454.99"/>
        <lane id=":V0024_2_1" index="1" speed="5.50" length="19.81" shape="522.78,470.14 527.51,466.83 530.32,463.95 533.12,461.06 537.86,457.76"/>
        <lane id=":V0024_2_2" index="2" speed="5.50" length="19.81" shape="522.78,470.14 539.45,460.54"/>
    </edge>
    <edge id=":V0024_5" function="internal">
        <lane id=":V0024_5_0" index="0" speed="17.50" length="19.76" shape="526.29,472.71 530.55,453.41"/>
        <lane id=":V0024_5_1" index="1" speed="17.50" length="19.76" shape="529.41,473.40 533.67,454.10"/>
    </edge>
    <edge id=":V0024_7" function="internal">
        <lane id=":V0024_7_0" index="0" speed="13.43" length="18.22" shape="529.41,473.40 530.96,467.79 532.89,463.32 535.18,459.97 537.86,457.76"/>
        <lane id=":V0024_7_1" index="1" speed="12.91" length="16.80" shape="529.41,473.40 530.71,469.55 532.82,466.13 535.73,463.12 539.45,460.54"/>
    </edge>
    <edge id=":V0025_0" function="internal">
        <lane id=":V0025_0_0" index="0" speed="6.15" length="9.06" shape="550.84,443.57 552.03,445.82 553.62,447.01 555.59,447.13 557.96,446.19"/>
    </edge>
    <edge id=":V0025_1" function="internal">
        <lane id=":V0025_1_0" index="0" speed="24.00" length="9.73" shape="550.84,443.57 554.11,452.73"/>
        <lane id=":V0025_1_1" index="1" speed="24.00" length="9.73" shape="547.83,444.64 551.10,453.81"/>
        <lane id=":V0025_1_2" index="2" speed="24.00" length="9.73" shape="544.81,445.72 548.09,454.88"/>
    </edge>
    <edge id=":V0025_4" function="internal">
        <lane id=":V0025_4_0" index="0" speed="5.97" length="8.45" shape="546.77,452.63 549.50,451.33 551.64,450.91 553.17,451.38 554.11,452.73"/>
        <lane id=":V0025_4_1" index="1" speed="4.13" length="3.42" shape="548.37,455.40 549.12,454.81 549.93,454.06 550.65,453.59 551.10,453.81"/>
    </edge>
    <edge id=":V0025_6" function="internal">
        <lane id=":V0025_6_0" index="0" speed="9.00" length="13.16" shape="548.37,455.40 551.49,453.03 553.16,450.79 554.84,448.56 557.96,446.19"/>
        <lane id=":V0025_6_1" index="1" speed="9.00" length="13.16" shape="548.37,455.40 559.56,448.96"/>
    </edge>
    <edge id=":V0026_0" function="internal">
        <lane id=":V0026_0_0" index="0" speed="17.50" length="17.16" shape="275.16,313.17 275.05,308.13 275.73,304.66 276.42,301.19 276.31,296.15"/>
        <lane id=":V0026_0_1" index="1" speed="17.50" length="17.16" shape="278.34,312.78 278.23,307.74 278.91,304.27 279.60,300.80 279.49,295.76"/>
    </edge>
    <edge id=":V0026_2" function="internal">
        <lane id=":V0026_2_0" index="0" speed="5.56" length="9.40" shape="281.51,312.40 281.52,309.50 282.42,307.94 284.21,307.72 286.88,308.83"/>
    </edge>
    <edge id=":V0026_3" function="internal">