<nodes><node id="V0001" x="697.9066666666666" y="565.9026666666667" type="priority" /><node id="V0002" x="683.3199999999999" y="47.49493333333333" type="priority" /><node id="V0003" x="47.75533333333333" y="194.114" type="priority" /><node id="V0004" x="538.428" y="346.332" type="priority" /><node id="V0005" x="889.74" y="335.68733333333336" type="priority" /><node id="V0006" x="500.894" y="873.7866666666666" type="priority" /><node id="V0007" x="316.1226666666667" y="238.64666666666665" type="priority" /><node id="V0008" x="155.18066666666667" y="637.096" type="priority" /><node id="V0009" x="731.76" y="887.8199999999999" type="priority" /><node id="V0010" x="364.7246666666667" y="637.9753333333333" type="priority" /><node id="V0011" x="694.5866666666666" y="448.0493333333333" type="priority" /><node id="V0012" x="645.862" y="647.2353333333334" type="priority" /><node id="V0013" x="346.9133333333333" y="491.6313333333334" type="priority" /><node id="V0014" x="562.3973333333332" y="595.2153333333333" type="priority" /><node id="V0015" x="525.4693333333333" y="340.05466666666666" type="priority" /><node id="V0016" x="302.224" y="273.056" type="priority" /><node id="V0017" x="593.548" y="506.226" type="priority" /><node id="V0018" x="622.6366666666667" y="582.1846666666667" type="priority" /><node id="V0019" x="321.02066666666667" y="278.88733333333334" type="priority" /><node id="V0020" x="510.754" y="367.32800000000003" type="priority" /><node id="V0021" x="583.3333333333334" y="500.3846666666667" type="priority" /><node id="V0022" x="280.3786666666667" y="327.14000000000004" type="priority" /><node id="V0023" x="596.0213333333334" y="507.64000000000004" type="priority" /><node id="V0024" x="580.3686666666667" y="513.814" type="priority" /><node id="V0025" x="595.1806666666666" y="505.286" type="priority" /><node id="V0026" x="330.3726666666667" y="355.7286666666667" type="priority" /><node id="V0027" x="524.426" y="341.9886666666667" type="priority" /><node id="V0028" x="441.94533333333334" y="419.532" type="priority" /><node id="V0029" x="473.004" y="437.29266666666666" type="priority" /><node id="V0030" x="587.1919999999999" y="482.90999999999997" type="priority" /></nodes>