<nodes><node id="V0001" x="234.05666666666667" y="752.5266666666666" type="priority" /><node id="V0002" x="396.8546666666667" y="401.77000000000004" type="priority" /><node id="V0003" x="464.4346666666667" y="814.3133333333334" type="priority" /><node id="V0004" x="967.8666666666667" y="1010.8066666666667" type="priority" /><node id="V0005" x="455.58" y="5.761893333333333" type="priority" /><node id="V0006" x="994.2666666666667" y="208.69799999999998" type="priority" /><node id="V0007" x="128.61733333333333" y="257.69" type="priority" /><node id="V0008" x="943.52" y="697.7133333333334" type="priority" /><node id="V0009" x="519.0260000000001" y="215.82666666666668" type="priority" /><node id="V0010" x="854.16" y="20.736333333333334" type="priority" /><node id="V0011" x="365.1933333333333" y="469.986" type="priority" /><node id="V0012" x="431.21" y="611.4926666666667" type="priority" /><node id="V0013" x="724.3333333333334" y="751.06" type="priority" /><node id="V0014" x="422.9" y="226.13466666666667" type="priority" /><node id="V0015" x="888.92" y="284.062" type="priority" /><node id="V0016" x="609.746" y="224.38533333333334" type="priority" /><node id="V0017" x="377.98333333333335" y="481.4626666666666" type="priority" /><node id="V0018" x="932.2266666666667" y="700.4599999999999" type="priority" /><node id="V0019" x="675.3199999999999" y="436.86333333333334" type="priority" /><node id="V0020" x="402.38199999999995" y="435.5113333333333" type="priority" /><node id="V0021" x="528.3386666666667" y="542.0093333333333" type="priority" /><node id="V0022" x="688.2133333333334" y="759.8533333333332" type="priority" /><node id="V0023" x="929.6533333333333" y="678.0466666666667" type="priority" /><node id="V0024" x="579.754" y="249.37533333333334" type="priority" /><node id="V0025" x="823.2066666666667" y="726.9933333333333" type="priority" /><node id="V0026" x="731.3266666666666" y="396.79866666666663" type="priority" /><node id="V0027" x="415.41133333333335" y="515.0493333333333" type="priority" /><node id="V0028" x="411.8213333333333" y="417.73333333333335" type="priority" /><node id="V0029" x="482.22" y="575.0013333333334" type="priority" /><node id="V0030" x="884.7466666666667" y="287.0473333333333" type="priority" /><node id="V0031" x="438.89733333333334" y="366.7393333333333" type="priority" /></nodes>