<?xml version="1.0" encoding="UTF-8"?>

<!-- generated on 2023-06-26 02:05:23 by Eclipse SUMO netconvert Version 1.16.0
<configuration xmlns:xsi="http://www.w3.org/2001/XMLSchema-instance" xsi:noNamespaceSchemaLocation="http://sumo.dlr.de/xsd/netconvertConfiguration.xsd">

    <input>
        <node-files value="data/simulationConfigurations/tests/12\12.nod.xml"/>
        <edge-files value="data/simulationConfigurations/tests/12\12.edg.xml"/>
    </input>

    <output>
        <output-file value="data/simulationConfigurations/tests/12\12.net.xml"/>
    </output>

</configuration>
-->

<net version="1.16" junctionCornerDetail="5" limitTurnSpeed="5.50" xmlns:xsi="http://www.w3.org/2001/XMLSchema-instance" xsi:noNamespaceSchemaLocation="http://sumo.dlr.de/xsd/net_file.xsd">

    <location netOffset="-128.62,-5.76" convBoundary="0.00,0.00,865.65,1005.04" origBoundary="128.62,5.76,994.27,1010.81" projParameter="!"/>

    <edge id=":V0002_0" function="internal">
        <lane id=":V0002_0_0" index="0" speed="6.68" length="9.13" shape="261.10,399.98 261.75,397.71 261.48,395.69 260.28,393.93 258.16,392.41"/>
    </edge>
    <edge id=":V0002_1" function="internal">
        <lane id=":V0002_1_0" index="0" speed="20.00" length="18.85" shape="261.10,399.98 263.23,394.93 264.23,391.31 264.75,387.54 265.45,382.07"/>
        <lane id=":V0002_1_1" index="1" speed="20.00" length="18.85" shape="261.10,399.98 263.77,394.94 265.84,391.55 267.42,388.01 268.62,382.54"/>
    </edge>
    <edge id=":V0002_3" function="internal">
        <lane id=":V0002_3_0" index="0" speed="10.50" length="19.54" shape="261.10,399.98 263.72,394.87 266.08,391.68 269.07,388.98 273.57,385.32"/>
        <lane id=":V0002_3_1" index="1" speed="10.50" length="18.12" shape="264.01,401.33 266.44,396.60 268.65,393.66 271.44,391.16 275.62,387.78"/>
    </edge>
    <edge id=":V0002_5" function="internal">
        <lane id=":V0002_5_0" index="0" speed="7.70" length="16.87" shape="264.01,401.33 266.77,396.90 269.83,394.90 273.18,395.31 276.82,398.15"/>
        <lane id=":V0002_5_1" index="1" speed="6.94" length="13.46" shape="264.01,401.33 266.08,398.21 268.52,397.01 271.32,397.72 274.49,400.34"/>
    </edge>
    <edge id=":V0002_7" function="internal">
        <lane id=":V0002_7_0" index="0" speed="6.33" length="14.79" shape="264.01,401.33 266.32,397.49 268.29,396.69 269.91,398.92 271.20,404.18"/>
    </edge>
    <edge id=":V0003_0" function="internal">
        <lane id=":V0003_0_0" index="0" speed="6.87" length="10.77" shape="336.19,800.94 337.07,803.29 338.79,804.71 341.35,805.19 344.75,804.73"/>
    </edge>
    <edge id=":V0003_1" function="internal">
        <lane id=":V0003_1_0" index="0" speed="9.81" length="12.94" shape="336.19,800.94 337.10,803.94 338.77,806.47 341.20,808.56 344.38,810.18"/>
    </edge>
    <edge id=":V0004_0" function="internal">
        <lane id=":V0004_0_0" index="0" speed="7.75" length="25.50" shape="823.18,970.00 828.98,980.76 832.91,986.62 834.98,987.58 835.18,983.63"/>
    </edge>
    <edge id=":V0004_1" function="internal">
        <lane id=":V0004_1_0" index="0" speed="7.46" length="23.41" shape="823.18,970.00 824.10,976.30 821.41,981.50 816.60,983.95 811.15,981.98"/>
    </edge>
    <edge id=":V0004_2" function="internal">
        <lane id=":V0004_2_0" index="0" speed="7.53" length="21.33" shape="819.76,972.56 826.77,979.70 831.68,983.93 834.48,985.24 835.18,983.63"/>
    </edge>
    <edge id=":V0004_3" function="internal">
        <lane id=":V0004_3_0" index="0" speed="4.76" length="9.26" shape="815.43,977.30 816.12,980.07 815.63,981.78 813.98,982.41 811.15,981.98"/>
    </edge>
    <edge id=":V0004_4" function="internal">
        <lane id=":V0004_4_0" index="0" speed="7.49" length="23.72" shape="819.69,995.69 823.63,996.58 823.52,994.59 819.36,989.73 811.15,981.98"/>
    </edge>
    <edge id=":V0004_5" function="internal">
        <lane id=":V0004_5_0" index="0" speed="9.22" length="26.30" shape="819.69,995.69 827.28,997.52 832.40,996.13 835.03,991.50 835.18,983.63"/>
    </edge>
    <edge id=":V0005_0" function="internal">
        <lane id=":V0005_0_0" index="0" speed="4.82" length="9.36" shape="359.13,48.39 361.20,51.19 362.08,52.00 361.77,50.84 360.26,47.71"/>
    </edge>
    <edge id=":V0005_1" function="internal">
        <lane id=":V0005_1_0" index="0" speed="8.23" length="29.49" shape="359.13,48.39 352.60,40.10 349.11,38.03 348.64,42.19 351.20,52.58"/>
    </edge>
    <edge id=":V0005_2" function="internal">
        <lane id=":V0005_2_0" index="0" speed="12.85" length="57.27" shape="359.13,48.39 352.34,37.53 342.52,20.72 333.98,5.29 331.02,-1.45"/>
    </edge>
    <edge id=":V0005_3" function="internal">
        <lane id=":V0005_3_0" index="0" speed="6.77" length="9.02" shape="324.79,3.72 325.48,1.38 326.75,-0.26 328.59,-1.20 331.02,-1.45"/>
    </edge>
    <edge id=":V0005_4" function="internal">
        <lane id=":V0005_4_0" index="0" speed="10.50" length="56.31" shape="324.79,3.72 329.55,8.30 339.83,22.29 350.77,38.41 357.51,49.36"/>
        <lane id=":V0005_4_1" index="1" speed="10.50" length="56.05" shape="324.79,3.72 329.04,9.10 338.38,23.61 348.42,39.99 354.76,51.02"/>
    </edge>
    <edge id=":V0005_6" function="internal">
        <lane id=":V0005_6_0" index="0" speed="11.35" length="55.15" shape="324.79,3.72 328.36,8.42 335.75,23.74 343.50,41.51 348.14,53.50"/>
        <lane id=":V0005_6_1" index="1" speed="11.46" length="56.33" shape="324.79,3.72 327.30,3.68 332.15,14.74 338.40,32.96 345.07,54.43"/>
    </edge>
    <edge id=":V0006_0" function="internal">
        <lane id=":V0006_0_0" index="0" speed="3.90" length="2.62" shape="862.06,203.53 862.58,203.04 862.82,202.49 862.76,201.91 862.42,201.28"/>
    </edge>
    <edge id=":V0008_0" function="internal">
        <lane id=":V0008_0_0" index="0" speed="8.26" length="27.80" shape="822.18,685.91 820.53,692.17 814.98,694.27 807.93,692.51 801.77,687.21"/>
        <lane id=":V0008_0_1" index="1" speed="7.07" length="19.84" shape="819.00,686.33 817.83,690.52 813.85,691.37 808.80,689.46 804.39,685.36"/>
        <lane id=":V0008_0_2" index="2" speed="6.56" length="16.81" shape="815.83,686.75 815.84,690.84 814.38,691.66 811.43,689.22 807.00,683.52"/>
    </edge>
    <edge id=":V0008_3" function="internal">
        <lane id=":V0008_3_0" index="0" speed="24.50" length="0.81" shape="800.96,687.11 801.77,687.21"/>
        <lane id=":V0008_3_1" index="1" speed="5.23" length="7.02" shape="801.72,690.22 803.84,689.44 804.98,688.37 805.17,687.01 804.39,685.36"/>
        <lane id=":V0008_3_2" index="2" speed="7.02" length="13.76" shape="802.48,693.33 806.42,691.82 808.49,689.69 808.68,686.92 807.00,683.52"/>
    </edge>
    <edge id=":V0009_0" function="internal">
        <lane id=":V0009_0_0" index="0" speed="12.31" length="29.46" shape="394.11,194.66 395.62,205.71 392.41,213.14 384.82,217.65 383.46,217.91"/>
        <lane id=":V0009_0_1" index="1" speed="11.38" length="28.07" shape="391.05,195.58 392.27,204.94 389.40,211.14 382.80,214.86 378.65,215.66"/>
        <lane id=":V0009_0_2" index="2" speed="10.38" length="28.09" shape="387.99,196.51 388.92,204.17 386.40,209.15 380.79,212.08 372.46,213.60"/>
    </edge>
    <edge id=":V0009_5" function="internal">
        <lane id=":V0009_5_0" index="0" speed="12.31" length="10.52" shape="383.46,217.91 373.14,219.96"/>
    </edge>
    <edge id=":V0009_6" function="internal">
        <lane id=":V0009_6_0" index="0" speed="11.38" length="5.96" shape="378.65,215.66 372.80,216.78"/>
    </edge>
    <edge id=":V0009_3" function="internal">
        <lane id=":V0009_3_0" index="0" speed="5.60" length="9.33" shape="376.83,225.41 377.83,222.75 377.55,220.95 375.99,220.02 373.14,219.96"/>
        <lane id=":V0009_3_1" index="1" speed="7.38" length="17.35" shape="379.65,226.91 381.52,221.96 381.00,218.62 378.09,216.89 372.80,216.78"/>
    </edge>
    <edge id=":V0010_0" function="internal">
        <lane id=":V0010_0_0" index="0" speed="3.80" length="5.22" shape="726.47,37.07 727.18,35.62 728.01,35.06 728.95,35.39 730.01,36.60"/>
    </edge>
    <edge id=":V0010_1" function="internal">
        <lane id=":V0010_1_0" index="0" speed="5.54" length="11.34" shape="737.92,34.26 735.35,31.33 733.70,30.67 732.98,32.29 733.18,36.18"/>
    </edge>
    <edge id=":V0010_2" function="internal">
        <lane id=":V0010_2_0" index="0" speed="6.00" length="28.92" shape="716.82,13.05 721.45,14.66 725.18,19.12 728.04,26.44 730.01,36.60"/>
    </edge>
    <edge id=":V0010_3" function="internal">
        <lane id=":V0010_3_0" index="0" speed="9.28" length="27.79" shape="712.63,23.65 719.02,20.75 724.20,22.76 727.93,28.46 730.01,36.60"/>
    </edge>
    <edge id=":V0011_0" function="internal">
        <lane id=":V0011_0_0" index="0" speed="13.50" length="14.57" shape="237.03,471.08 226.19,461.35"/>
        <lane id=":V0011_0_1" index="1" speed="13.50" length="14.57" shape="239.17,468.70 228.32,458.97"/>
    </edge>
    <edge id=":V0011_2" function="internal">
        <lane id=":V0011_2_0" index="0" speed="7.87" length="10.60" shape="239.17,468.70 237.34,466.57 236.40,464.26 236.35,461.77 237.19,459.09"/>
    </edge>
    <edge id=":V0011_3" function="internal">
        <lane id=":V0011_3_0" index="0" speed="8.60" length="12.79" shape="231.06,472.31 231.57,469.88 230.92,467.24 229.13,464.40 226.19,461.35"/>
    </edge>
    <edge id=":V0011_4" function="internal">
        <lane id=":V0011_4_0" index="0" speed="18.00" length="14.78" shape="231.06,472.31 232.01,469.07 232.29,465.86 232.76,462.23 234.29,457.74"/>
        <lane id=":V0011_4_1" index="1" speed="18.00" length="14.78" shape="231.06,472.31 237.19,459.09"/>
    </edge>
    <edge id=":V0012_0" function="internal">
        <lane id=":V0012_0_0" index="0" speed="5.74" length="9.18" shape="304.44,587.32 305.24,589.92 306.58,591.23 308.45,591.25 310.85,589.99"/>
        <lane id=":V0012_0_1" index="1" speed="7.44" length="16.37" shape="301.28,587.84 302.71,592.48 305.09,594.81 308.42,594.85 312.71,592.59"/>
    </edge>
    <edge id=":V0012_2" function="internal">
        <lane id=":V0012_2_0" index="0" speed="20.00" length="21.87" shape="301.28,587.84 304.82,609.42"/>
    </edge>
    <edge id=":V0012_3" function="internal">
        <lane id=":V0012_3_0" index="0" speed="13.50" length="20.10" shape="296.55,604.15 301.06,600.31 303.68,597.08 306.31,593.85 310.85,589.99"/>
        <lane id=":V0012_3_1" index="1" speed="13.50" length="20.10" shape="298.41,606.76 302.92,602.91 305.54,599.69 308.17,596.46 312.71,592.59"/>
        <lane id=":V0012_3_2" index="2" speed="13.50" length="20.10" shape="298.41,606.76 314.57,595.19"/>
    </edge>
    <edge id=":V0012_6" function="internal">
        <lane id=":V0012_6_0" index="0" speed="5.74" length="9.18" shape="298.41,606.76 300.81,605.49 302.68,605.51 304.02,606.82 304.82,609.42"/>
    </edge>
    <edge id=":V0013_0" function="internal">
        <lane id=":V0013_0_0" index="0" speed="10.12" length="14.16" shape="594.93,732.76 597.95,735.43 601.06,737.11 604.26,737.79 607.56,737.47"/>
    </edge>
    <edge id=":V0013_1" function="internal">
        <lane id=":V0013_1_0" index="0" speed="18.00" length="17.44" shape="594.93,732.76 606.86,745.49"/>
        <lane id=":V0013_1_1" index="1" speed="18.00" length="17.44" shape="592.59,734.95 604.53,747.68"/>
        <lane id=":V0013_1_2" index="2" speed="18.00" length="17.44" shape="590.26,737.14 602.19,749.86"/>
    </edge>
    <edge id=":V0013_4" function="internal">
        <lane id=":V0013_4_0" index="0" speed="8.00" length="19.31" shape="588.80,742.04 607.56,737.47"/>
        <lane id=":V0013_4_1" index="1" speed="8.00" length="19.31" shape="589.56,745.15 608.32,740.58"/>
    </edge>
    <edge id=":V0013_6" function="internal">
        <lane id=":V0013_6_0" index="0" speed="10.70" length="15.89" shape="589.56,745.15 594.34,744.37 598.43,744.53 601.82,745.63 604.53,747.68"/>
        <lane id=":V0013_6_1" index="1" speed="10.12" length="14.16" shape="589.56,745.15 592.85,744.84 596.06,745.52 599.17,747.19 602.19,749.86"/>
    </edge>
    <edge id=":V0014_0" function="internal">
        <lane id=":V0014_0_0" index="0" speed="13.00" length="16.98" shape="299.11,227.90 293.80,227.46 289.84,225.68 286.51,223.82 283.08,223.18"/>
    </edge>
    <edge id=":V0014_1" function="internal">
        <lane id=":V0014_1_0" index="0" speed="6.03" length="9.07" shape="298.43,221.54 295.85,221.45 294.13,220.52 293.27,218.77 293.29,216.18"/>
    </edge>
    <edge id=":V0014_2" function="internal">
        <lane id=":V0014_2_0" index="0" speed="7.10" length="13.08" shape="287.49,233.44 287.82,228.71 287.20,225.42 285.61,223.58 283.08,223.18"/>
    </edge>
    <edge id=":V0014_3" function="internal">
        <lane id=":V0014_3_0" index="0" speed="19.00" length="17.92" shape="290.66,233.91 293.29,216.18"/>
    </edge>
    <edge id=":V0015_0" function="internal">
        <lane id=":V0015_0_0" index="0" speed="6.70" length="13.24" shape="763.11,262.92 764.15,267.17 765.89,269.48 768.33,269.88 771.47,268.34"/>
    </edge>
    <edge id=":V0015_1" function="internal">
        <lane id=":V0015_1_0" index="0" speed="8.50" length="19.12" shape="763.11,262.92 764.35,268.45 765.94,272.07 767.52,275.69 768.76,281.22"/>
        <lane id=":V0015_1_1" index="1" speed="8.50" length="19.12" shape="759.94,263.34 761.18,268.87 762.76,272.49 764.35,276.11 765.58,281.64"/>
        <lane id=":V0015_1_2" index="2" speed="8.50" length="19.12" shape="759.94,263.34 762.41,282.06"/>
    </edge>
    <edge id=":V0015_4" function="internal">
        <lane id=":V0015_4_0" index="0" speed="25.50" length="17.04" shape="755.14,272.16 760.00,269.91 764.34,269.51 768.16,269.48 771.47,268.34"/>
    </edge>
    <edge id=":V0015_5" function="internal">
        <lane id=":V0015_5_0" index="0" speed="6.96" length="14.39" shape="757.00,274.76 760.17,273.31 762.65,273.97 764.46,276.75 765.58,281.64"/>
        <lane id=":V0015_5_1" index="1" speed="5.13" length="7.18" shape="758.86,277.36 760.09,276.94 761.09,277.58 761.86,279.28 762.41,282.06"/>
    </edge>
    <edge id=":V0016_0" function="internal">
        <lane id=":V0016_0_0" index="0" speed="18.50" length="13.80" shape="482.10,222.77 474.14,211.49"/>
    </edge>
    <edge id=":V0016_1" function="internal">
        <lane id=":V0016_1_0" index="0" speed="6.67" length="8.94" shape="482.10,222.77 480.99,220.62 480.79,218.58 481.51,216.66 483.14,214.87"/>
    </edge>
    <edge id=":V0016_2" function="internal">
        <lane id=":V0016_2_0" index="0" speed="6.67" length="8.94" shape="472.75,219.35 474.48,217.50 475.28,215.57 475.17,213.57 474.14,211.49"/>
    </edge>
    <edge id=":V0016_3" function="internal">
        <lane id=":V0016_3_0" index="0" speed="17.50" length="10.85" shape="474.80,221.81 483.14,214.87"/>
    </edge>
    <edge id=":V0017_0" function="internal">
        <lane id=":V0017_0_0" index="0" speed="19.00" length="11.14" shape="249.67,482.42 241.38,474.98"/>
        <lane id=":V0017_0_1" index="1" speed="19.00" length="11.14" shape="251.81,480.04 243.51,472.60"/>
    </edge>
    <edge id=":V0017_2" function="internal">
        <lane id=":V0017_2_0" index="0" speed="7.33" length="9.57" shape="251.81,480.04 250.02,478.01 249.08,475.91 249.01,473.73 249.79,471.49"/>
    </edge>
    <edge id=":V0017_3" function="internal">
        <lane id=":V0017_3_0" index="0" speed="7.33" length="9.57" shape="243.39,483.54 244.18,481.29 244.10,479.11 243.17,477.01 241.38,474.98"/>
    </edge>
    <edge id=":V0017_4" function="internal">
        <lane id=":V0017_4_0" index="0" speed="19.00" length="13.65" shape="243.39,483.54 249.79,471.49"/>
    </edge>
    <edge id=":V0018_0" function="internal">
        <lane id=":V0018_0_0" index="0" speed="11.50" length="11.86" shape="802.47,698.79 801.14,695.99 798.72,694.21 796.27,692.18 794.86,688.64"/>
        <lane id=":V0018_0_1" index="1" speed="11.50" length="11.86" shape="802.47,698.79 801.63,695.84 800.28,693.79 798.93,691.61 798.04,688.27"/>
        <lane id=":V0018_0_2" index="2" speed="11.50" length="11.86" shape="802.47,698.79 801.22,687.91"/>
    </edge>
    <edge id=":V0018_3" function="internal">
        <lane id=":V0018_3_0" index="0" speed="6.68" length="8.66" shape="802.47,698.79 802.14,697.07 801.59,694.24 801.25,691.56 801.53,690.26"/>
        <lane id=":V0018_3_1" index="1" speed="5.49" length="5.55" shape="802.47,698.79 802.25,697.55 801.97,695.80 801.89,694.18 802.28,693.37"/>
    </edge>
    <edge id=":V0018_5" function="internal">
        <lane id=":V0018_5_0" index="0" speed="6.01" length="6.82" shape="790.42,692.97 792.50,692.26 793.93,691.30 794.72,690.09 794.86,688.64"/>
    </edge>
    <edge id=":V0018_6" function="internal">
        <lane id=":V0018_6_0" index="0" speed="18.00" length="11.82" shape="790.42,692.97 793.66,691.66 795.60,690.06 797.53,688.46 800.77,687.16"/>
        <lane id=":V0018_6_1" index="1" speed="18.00" length="11.82" shape="791.18,696.08 794.42,694.77 796.35,693.17 798.29,691.57 801.53,690.26"/>
        <lane id=":V0018_6_2" index="2" speed="18.00" length="11.82" shape="791.18,696.08 802.28,693.37"/>
    </edge>
    <edge id=":V0019_0" function="internal">
        <lane id=":V0019_0_0" index="0" speed="7.93" length="15.50" shape="544.75,416.71 547.45,420.83 550.38,423.05 553.53,423.38 556.92,421.82"/>
    </edge>
    <edge id=":V0019_1" function="internal">
        <lane id=":V0019_1_0" index="0" speed="17.50" length="17.96" shape="544.75,416.71 547.61,421.20 550.20,423.87 552.80,426.54 555.65,431.03"/>
        <lane id=":V0019_1_1" index="1" speed="17.50" length="17.96" shape="541.90,418.16 544.75,422.65 547.35,425.32 549.94,427.99 552.80,432.49"/>
        <lane id=":V0019_1_2" index="2" speed="17.50" length="17.96" shape="541.90,418.16 549.94,433.94"/>
    </edge>
    <edge id=":V0019_4" function="internal">
        <lane id=":V0019_4_0" index="0" speed="14.00" length="19.05" shape="538.79,426.92 544.29,424.22 549.20,423.41 553.45,423.08 556.92,421.82"/>
    </edge>
    <edge id=":V0019_5" function="internal">
        <lane id=":V0019_5_0" index="0" speed="7.76" length="14.79" shape="540.66,429.52 544.34,427.62 547.59,427.48 550.41,429.10 552.80,432.49"/>
        <lane id=":V0019_5_1" index="1" speed="6.21" length="9.05" shape="542.52,432.13 544.77,430.96 546.76,430.88 548.48,431.87 549.94,433.94"/>
    </edge>
    <edge id=":V0020_0" function="internal">
        <lane id=":V0020_0_0" index="0" speed="5.60" length="10.95" shape="273.16,416.18 274.07,419.41 275.37,420.48 277.08,419.39 279.18,416.13"/>
    </edge>
    <edge id=":V0020_1" function="internal">
        <lane id=":V0020_1_0" index="0" speed="18.50" length="17.67" shape="273.16,416.18 274.24,419.64 275.92,423.11 277.72,427.30 279.15,432.92"/>
        <lane id=":V0020_1_1" index="1" speed="18.50" length="17.67" shape="273.16,416.18 275.99,433.44"/>
    </edge>
    <edge id=":V0020_3" function="internal">
        <lane id=":V0020_3_0" index="0" speed="13.00" length="18.57" shape="270.48,432.53 279.18,416.13"/>
    </edge>
    <edge id=":V0020_4" function="internal">
        <lane id=":V0020_4_0" index="0" speed="5.46" length="4.15" shape="270.48,432.53 272.36,429.69 273.02,429.35"/>
    </edge>
    <edge id=":V0020_5" function="internal">
        <lane id=":V0020_5_0" index="0" speed="5.46" length="6.14" shape="273.02,429.35 273.90,428.90 275.12,430.15 275.99,433.44"/>
    </edge>
    <edge id=":V0021_0" function="internal">
        <lane id=":V0021_0_0" index="0" speed="8.01" length="12.78" shape="394.20,523.34 396.40,524.84 399.07,525.12 402.20,524.20 405.79,522.07"/>
    </edge>
    <edge id=":V0021_1" function="internal">
        <lane id=":V0021_1_0" index="0" speed="20.50" length="18.22" shape="394.20,523.34 398.24,526.92 401.51,528.80 404.79,530.68 408.83,534.26"/>
        <lane id=":V0021_1_1" index="1" speed="20.50" length="18.22" shape="391.87,525.53 395.91,529.11 399.18,530.99 402.45,532.87 406.49,536.45"/>
        <lane id=":V0021_1_2" index="2" speed="20.50" length="18.22" shape="391.87,525.53 404.16,538.64"/>
    </edge>
    <edge id=":V0021_4" function="internal">
        <lane id=":V0021_4_0" index="0" speed="18.50" length="18.58" shape="391.18,532.52 405.79,522.07"/>
        <lane id=":V0021_4_1" index="1" speed="18.50" length="18.58" shape="391.18,532.52 395.84,529.80 399.42,528.60 402.99,527.39 407.65,524.67"/>
        <lane id=":V0021_4_2" index="2" speed="18.50" length="18.58" shape="391.18,532.52 396.23,530.14 400.35,529.90 404.47,529.65 409.52,527.27"/>
    </edge>
    <edge id=":V0021_7" function="internal">
        <lane id=":V0021_7_0" index="0" speed="8.63" length="15.00" shape="393.04,535.12 396.62,533.25 400.06,532.84 403.35,533.91 406.49,536.45"/>
        <lane id=":V0021_7_1" index="1" speed="7.26" length="10.32" shape="394.90,537.73 397.37,536.44 399.73,536.16 401.99,536.89 404.16,538.64"/>
    </edge>
    <edge id=":V0022_0" function="internal">
        <lane id=":V0022_0_0" index="0" speed="23.00" length="16.26" shape="561.50,757.95 549.40,747.09"/>
    </edge>
    <edge id=":V0022_1" function="internal">
        <lane id=":V0022_1_0" index="0" speed="5.59" length="9.34" shape="561.50,757.95 559.64,755.79 559.29,754.01 560.44,752.61 563.10,751.59"/>
    </edge>
    <edge id=":V0022_2" function="internal">
        <lane id=":V0022_2_0" index="0" speed="5.59" length="9.34" shape="545.66,755.84 548.33,754.81 549.48,753.41 549.13,751.63 547.26,749.47"/>
    </edge>
    <edge id=":V0022_3" function="internal">
        <lane id=":V0022_3_0" index="0" speed="12.50" length="18.12" shape="545.66,755.84 549.07,754.49 552.50,752.52 556.69,750.37 562.35,748.48"/>
        <lane id=":V0022_3_1" index="1" speed="12.50" length="18.12" shape="545.66,755.84 563.10,751.59"/>
    </edge>
    <edge id=":V0023_0" function="internal">
        <lane id=":V0023_0_0" index="0" speed="10.00" length="32.36" shape="794.84,688.44 793.34,679.32 791.06,672.88 787.49,666.93 782.09,659.30"/>
    </edge>
    <edge id=":V0023_1" function="internal">
        <lane id=":V0023_1_0" index="0" speed="11.00" length="34.42" shape="794.84,688.44 790.91,654.24"/>
        <lane id=":V0023_1_1" index="1" speed="11.00" length="34.42" shape="798.02,688.08 794.09,653.88"/>
        <lane id=":V0023_1_2" index="2" speed="11.00" length="34.42" shape="801.20,687.71 797.27,653.51"/>
    </edge>
    <edge id=":V0023_4" function="internal">
        <lane id=":V0023_4_0" index="0" speed="16.50" length="34.41" shape="801.65,687.05 796.58,678.97 793.18,672.25 789.79,665.53 784.71,657.46"/>
        <lane id=":V0023_4_1" index="1" speed="16.50" length="34.41" shape="801.65,687.05 796.98,678.69 794.49,671.33 791.99,663.97 787.32,655.61"/>
    </edge>
    <edge id=":V0023_6" function="internal">
        <lane id=":V0023_6_0" index="0" speed="17.50" length="33.48" shape="804.27,685.20 799.27,677.23 796.58,670.53 795.19,663.33 794.09,653.88"/>
        <lane id=":V0023_6_1" index="1" speed="17.50" length="31.92" shape="806.89,683.36 801.98,675.62 799.48,669.43 798.28,662.74 797.27,653.51"/>
    </edge>
    <edge id=":V0024_0" function="internal">
        <lane id=":V0024_0_0" index="0" speed="6.08" length="9.07" shape="452.48,228.63 453.96,230.73 455.68,231.68 457.63,231.48 459.82,230.13"/>
        <lane id=":V0024_0_1" index="1" speed="7.66" length="15.12" shape="449.63,230.08 452.10,233.58 454.96,235.17 458.22,234.84 461.87,232.59"/>
    </edge>
    <edge id=":V0024_2" function="internal">
        <lane id=":V0024_2_0" index="0" speed="12.00" length="16.94" shape="446.78,231.53 449.50,235.77 452.00,238.27 454.51,240.76 457.23,245.00"/>
        <lane id=":V0024_2_1" index="1" speed="12.00" length="16.94" shape="446.78,231.53 454.38,246.45"/>
    </edge>
    <edge id=":V0024_4" function="internal">
        <lane id=":V0024_4_0" index="0" speed="17.00" length="19.30" shape="444.99,242.49 459.82,230.13"/>
        <lane id=":V0024_4_1" index="1" speed="17.00" length="19.30" shape="447.04,244.94 461.87,232.59"/>
    </edge>
    <edge id=":V0024_6" function="internal">
        <lane id=":V0024_6_0" index="0" speed="6.08" length="9.07" shape="447.04,244.94 449.23,243.60 451.18,243.40 452.90,244.35 454.38,246.45"/>
    </edge>
    <edge id=":V0025_0" function="internal">
        <lane id=":V0025_0_0" index="0" speed="7.30" length="9.58" shape="697.29,708.92 698.89,711.47 700.65,713.14 702.57,713.93 704.64,713.85"/>
        <lane id=":V0025_0_1" index="1" speed="8.68" length="13.89" shape="694.44,710.37 696.70,713.87 699.28,716.13 702.18,717.16 705.40,716.95"/>
    </edge>
    <edge id=":V0025_2" function="internal">
        <lane id=":V0025_2_0" index="0" speed="12.00" length="13.66" shape="691.59,711.83 697.80,724.00"/>
    </edge>
    <edge id=":V0025_3" function="internal">
        <lane id=":V0025_3_0" index="0" speed="9.00" length="16.19" shape="688.91,717.67 704.64,713.85"/>
        <lane id=":V0025_3_1" index="1" speed="9.00" length="16.19" shape="689.66,720.78 705.40,716.95"/>
    </edge>
    <edge id=":V0025_5" function="internal">
        <lane id=":V0025_5_0" index="0" speed="6.00" length="9.53" shape="689.66,720.78 692.34,720.46 694.59,720.88 696.40,722.06 697.80,724.00"/>
    </edge>
    <edge id=":V0026_0" function="internal">
        <lane id=":V0026_0_0" index="0" speed="12.00" length="13.31" shape="598.50,398.95 597.14,395.29 597.57,392.08 598.15,389.09 597.27,386.10"/>
    </edge>
    <edge id=":V0026_1" function="internal">
        <lane id=":V0026_1_0" index="0" speed="7.35" length="11.74" shape="601.11,397.10 600.15,394.78 600.48,392.39 602.10,389.93 605.03,387.41"/>
    </edge>
    <edge id=":V0026_2" function="internal">
        <lane id=":V0026_2_0" index="0" speed="8.12" length="14.57" shape="590.74,397.63 594.80,394.30 597.24,391.26 598.07,388.53 597.27,386.10"/>
    </edge>
    <edge id=":V0026_3" function="internal">
        <lane id=":V0026_3_0" index="0" speed="14.50" length="17.57" shape="590.74,397.63 605.03,387.41"/>
    </edge>
    <edge id=":V0027_0" function="internal">
        <lane id=":V0027_0_0" index="0" speed="5.46" length="10.16" shape="300.92,532.71 298.22,530.74 296.50,530.54 295.73,532.11 295.94,535.44"/>
        <lane id=":V0027_0_1" index="1" speed="7.53" length="20.96" shape="303.06,530.33 297.49,526.27 293.93,525.85 292.36,529.08 292.78,535.95"/>
    </edge>
    <edge id=":V0027_2" function="internal">
        <lane id=":V0027_2_0" index="0" speed="17.50" length="30.26" shape="305.19,527.95 297.69,521.89 291.51,517.82 286.02,514.37 280.61,510.19"/>
        <lane id=":V0027_2_1" index="1" speed="17.50" length="30.26" shape="305.19,527.95 282.75,507.81"/>
    </edge>
    <edge id=":V0027_4" function="internal">
        <lane id=":V0027_4_0" index="0" speed="19.50" length="31.28" shape="290.88,504.56 295.94,535.44"/>
        <lane id=":V0027_4_1" index="1" speed="19.50" length="31.28" shape="287.73,505.08 292.78,535.95"/>
    </edge>
    <edge id=":V0027_6" function="internal">
        <lane id=":V0027_6_0" index="0" speed="5.46" length="4.15" shape="287.73,505.08 287.93,508.41 287.58,509.14"/>
    </edge>
    <edge id=":V0027_7" function="internal">
        <lane id=":V0027_7_0" index="0" speed="5.46" length="6.01" shape="287.58,509.14 287.17,509.98 285.44,509.78 282.75,507.81"/>
    </edge>
    <edge id=":V0028_0" function="internal">
        <lane id=":V0028_0_0" index="0" speed="5.49" length="7.68" shape="276.96,398.29 278.39,399.27 279.82,399.19 281.27,398.03 282.73,395.81"/>
    </edge>
    <edge id=":V0028_1" function="internal">
        <lane id=":V0028_1_0" index="0" speed="17.00" length="18.25" shape="276.96,398.29 289.44,411.61"/>
        <lane id=":V0028_1_1" index="1" speed="17.00" length="18.25" shape="274.63,400.48 287.11,413.80"/>
    </edge>
    <edge id=":V0028_3" function="internal">
        <lane id=":V0028_3_0" index="0" speed="10.00" length="18.60" shape="279.92,414.75 280.71,411.12 280.52,406.80 280.72,401.72 282.73,395.81"/>
        <lane id=":V0028_3_1" index="1" speed="10.00" length="18.60" shape="279.92,414.75 281.18,411.30 282.00,407.41 283.19,402.83 285.55,397.31"/>
        <lane id=":V0028_3_2" index="2" speed="10.00" length="18.60" shape="279.92,414.75 288.38,398.81"/>
    </edge>
    <edge id=":V0028_6" function="internal">
        <lane id=":V0028_6_0" index="0" speed="5.91" length="9.10" shape="279.92,414.75 281.46,412.63 283.18,411.76 285.06,412.15 287.11,413.80"/>
    </edge>
    <edge id=":V0029_0" function="internal">
        <lane id=":V0029_0_0" index="0" speed="20.50" length="19.97" shape="353.37,575.48 338.51,562.15"/>
        <lane id=":V0029_0_1" index="1" speed="20.50" length="19.97" shape="355.51,573.10 340.65,559.77"/>
    </edge>
    <edge id=":V0029_2" function="internal">
        <lane id=":V0029_2_0" index="0" speed="6.94" length="12.16" shape="355.51,573.10 352.83,570.15 351.70,567.48 352.11,565.10 354.06,563.01"/>
        <lane id=":V0029_2_1" index="1" speed="6.09" length="9.06" shape="355.51,573.10 353.86,571.13 353.38,569.23 354.07,567.39 355.93,565.61"/>
    </edge>
    <edge id=":V0029_4" function="internal">
        <lane id=":V0029_4_0" index="0" speed="6.09" length="9.06" shape="335.96,572.02 337.82,570.25 338.50,568.41 338.02,566.50 336.38,564.53"/>
    </edge>
    <edge id=":V0029_5" function="internal">
        <lane id=":V0029_5_0" index="0" speed="20.00" length="19.97" shape="335.96,572.02 352.20,560.41"/>
        <lane id=":V0029_5_1" index="1" speed="20.00" length="19.97" shape="337.83,574.62 354.06,563.01"/>
        <lane id=":V0029_5_2" index="2" speed="20.00" length="19.97" shape="339.69,577.23 355.93,565.61"/>
    </edge>
    <edge id=":V0030_0" function="internal">
        <lane id=":V0030_0_0" index="0" speed="9.50" length="21.54" shape="749.06,289.83 746.66,268.95"/>
        <lane id=":V0030_0_1" index="1" speed="9.50" length="21.54" shape="749.06,289.83 748.84,283.54 749.45,279.21 750.06,274.88 749.84,268.59"/>