<configuration><input><net-file value="12.net.xml" /><route-files value="12.rou.xml" /></input><time><begin value="0" /></time></configuration>