<configuration><input><net-file value="sim_17.net.xml" /><route-files value="sim_17.rou.xml" /></input><time><begin value="0" /></time></configuration>