<?xml version="1.0" encoding="UTF-8"?>

<!-- generated on 2023-06-15 17:10:25 by Eclipse SUMO netconvert Version 1.16.0
<configuration xmlns:xsi="http://www.w3.org/2001/XMLSchema-instance" xsi:noNamespaceSchemaLocation="http://sumo.dlr.de/xsd/netconvertConfiguration.xsd">

    <input>
        <node-files value="data/simulationConfigurations/tmp/sim_17\sim_17.nod.xml"/>
        <edge-files value="data/simulationConfigurations/tmp/sim_17\sim_17.edg.xml"/>
    </input>

    <output>
        <output-file value="data/simulationConfigurations/tmp/sim_17\sim_17.net.xml"/>
    </output>

</configuration>
-->

<net version="1.16" junctionCornerDetail="5" limitTurnSpeed="5.50" xmlns:xsi="http://www.w3.org/2001/XMLSchema-instance" xsi:noNamespaceSchemaLocation="http://sumo.dlr.de/xsd/net_file.xsd">

    <location netOffset="-100.00,0.00" convBoundary="0.00,0.00,400.00,400.00" origBoundary="0.00,0.00,500.00,400.00" projParameter="!"/>

    <edge id=":1_0" function="internal">
        <lane id=":1_0_0" index="0" speed="3.65" length="4.67" shape="-1.60,116.80 -0.80,115.60 0.00,115.20 0.80,115.60 1.60,116.80"/>
    </edge>
    <edge id=":1_1" function="internal">
        <lane id=":1_1_0" index="0" speed="6.51" length="9.03" shape="10.40,111.20 7.95,111.55 6.20,112.60 5.15,114.35 4.80,116.80"/>
        <lane id=":1_1_1" index="1" speed="8.00" length="14.19" shape="10.40,108.00 6.55,108.55 3.80,110.20 2.15,112.95 1.60,116.80"/>
    </edge>
    <edge id=":10_0" function="internal">
        <lane id=":10_0_0" index="0" speed="6.51" length="9.03" shape="195.20,113.60 194.85,111.15 193.80,109.40 192.05,108.35 189.60,108.00"/>
    </edge>
    <edge id=":10_1" function="internal">
        <lane id=":10_1_0" index="0" speed="10.41" length="24.73" shape="198.40,113.60 199.15,105.55 201.40,99.80 205.15,96.35 210.40,95.20"/>
        <lane id=":10_1_1" index="1" speed="9.84" length="21.99" shape="198.40,113.60 199.15,106.95 201.40,102.20 205.15,99.35 210.40,98.40"/>
    </edge>
    <edge id=":10_3" function="internal">
        <lane id=":10_3_0" index="0" speed="3.65" length="4.67" shape="198.40,113.60 199.20,112.40 200.00,112.00 200.80,112.40 201.60,113.60"/>
    </edge>
    <edge id=":10_4" function="internal">
        <lane id=":10_4_0" index="0" speed="6.51" length="9.03" shape="210.40,108.00 207.95,108.35 206.20,109.40 205.15,111.15 204.80,113.60"/>
    </edge>
    <edge id=":10_5" function="internal">
        <lane id=":10_5_0" index="0" speed="13.90" length="20.80" shape="210.40,108.00 189.60,108.00"/>
        <lane id=":10_5_1" index="1" speed="13.90" length="20.80" shape="210.40,104.80 189.60,104.80"/>
        <lane id=":10_5_2" index="2" speed="13.90" length="20.80" shape="210.40,101.60 189.60,101.60"/>
    </edge>
    <edge id=":10_8" function="internal">
        <lane id=":10_8_0" index="0" speed="3.65" length="1.44" shape="210.40,101.60 209.20,100.80"/>
    </edge>
    <edge id=":10_14" function="internal">
        <lane id=":10_14_0" index="0" speed="3.65" length="3.23" shape="209.20,100.80 208.80,100.00 209.20,99.20 210.40,98.40"/>
    </edge>
    <edge id=":10_9" function="internal">
        <lane id=":10_9_0" index="0" speed="13.90" length="20.80" shape="189.60,92.00 210.40,92.00"/>
        <lane id=":10_9_1" index="1" speed="13.90" length="20.80" shape="189.60,95.20 210.40,95.20"/>
        <lane id=":10_9_2" index="2" speed="13.90" length="20.80" shape="189.60,98.40 210.40,98.40"/>
    </edge>
    <edge id=":10_12" function="internal">
        <lane id=":10_12_0" index="0" speed="9.84" length="4.01" shape="189.60,98.40 193.55,99.11"/>
    </edge>
    <edge id=":10_13" function="internal">
        <lane id=":10_13_0" index="0" speed="3.65" length="1.44" shape="189.60,98.40 190.80,99.20"/>
    </edge>
    <edge id=":10_15" function="internal">
        <lane id=":10_15_0" index="0" speed="9.84" length="17.98" shape="193.55,99.11 194.85,99.35 198.60,102.20 200.85,106.95 201.60,113.60"/>
    </edge>
    <edge id=":10_16" function="internal">
        <lane id=":10_16_0" index="0" speed="3.65" length="3.23" shape="190.80,99.20 191.20,100.00 190.80,100.80 189.60,101.60"/>
    </edge>
    <edge id=":11_0" function="internal">
        <lane id=":11_0_0" index="0" speed="6.51" length="9.03" shape="195.20,210.40 194.85,207.95 193.80,206.20 192.05,205.15 189.60,204.80"/>
    </edge>
    <edge id=":11_1" function="internal">
        <lane id=":11_1_0" index="0" speed="13.90" length="20.80" shape="195.20,210.40 195.20,189.60"/>
        <lane id=":11_1_1" index="1" speed="13.90" length="20.80" shape="198.40,210.40 198.40,189.60"/>
    </edge>
    <edge id=":11_3" function="internal">
        <lane id=":11_3_0" index="0" speed="9.26" length="5.01" shape="198.40,210.40 199.11,205.44"/>
    </edge>
    <edge id=":11_4" function="internal">
        <lane id=":11_4_0" index="0" speed="3.65" length="1.44" shape="198.40,210.40 199.20,209.20"/>
    </edge>
    <edge id=":11_20" function="internal">
        <lane id=":11_20_0" index="0" speed="9.26" length="14.34" shape="199.11,205.44 199.15,205.15 201.40,201.40 205.15,199.15 210.40,198.40"/>
    </edge>
    <edge id=":11_21" function="internal">
        <lane id=":11_21_0" index="0" speed="3.65" length="3.23" shape="199.20,209.20 200.00,208.80 200.80,209.20 201.60,210.40"/>
    </edge>
    <edge id=":11_5" function="internal">
        <lane id=":11_5_0" index="0" speed="6.51" length="9.03" shape="210.40,204.80 207.95,205.15 206.20,206.20 205.15,207.95 204.80,210.40"/>
    </edge>
    <edge id=":11_6" function="internal">
        <lane id=":11_6_0" index="0" speed="13.90" length="20.80" shape="210.40,204.80 189.60,204.80"/>
        <lane id=":11_6_1" index="1" speed="13.90" length="20.80" shape="210.40,201.60 189.60,201.60"/>
    </edge>
    <edge id=":11_8" function="internal">
        <lane id=":11_8_0" index="0" speed="9.26" length="19.35" shape="210.40,201.60 205.15,200.85 201.40,198.60 199.15,194.85 198.40,189.60"/>
    </edge>
    <edge id=":11_9" function="internal">
        <lane id=":11_9_0" index="0" speed="3.65" length="4.67" shape="210.40,201.60 209.20,200.80 208.80,200.00 209.20,199.20 210.40,198.40"/>
    </edge>
    <edge id=":11_10" function="internal">
        <lane id=":11_10_0" index="0" speed="6.51" length="9.03" shape="204.80,189.60 205.15,192.05 206.20,193.80 207.95,194.85 210.40,195.20"/>
    </edge>
    <edge id=":11_11" function="internal">
        <lane id=":11_11_0" index="0" speed="13.90" length="20.80" shape="204.80,189.60 204.80,210.40"/>
        <lane id=":11_11_1" index="1" speed="13.90" length="20.80" shape="201.60,189.60 201.60,210.40"/>
    </edge>
    <edge id=":11_13" function="internal">
        <lane id=":11_13_0" index="0" speed="9.26" length="5.01" shape="201.60,189.60 200.89,194.56"/>
    </edge>
    <edge id=":11_14" function="internal">
        <lane id=":11_14_0" index="0" speed="3.65" length="1.44" shape="201.60,189.60 200.80,190.80"/>
    </edge>
    <edge id=":11_22" function="internal">
        <lane id=":11_22_0" index="0" speed="9.26" length="14.34" shape="200.89,194.56 200.85,194.85 198.60,198.60 194.85,200.85 189.60,201.60"/>
    </edge>
    <edge id=":11_23" function="internal">
        <lane id=":11_23_0" index="0" speed="3.65" length="3.23" shape="200.80,190.80 200.00,191.20 199.20,190.80 198.40,189.60"/>
    </edge>
    <edge id=":11_15" function="internal">
        <lane id=":11_15_0" index="0" speed="6.51" length="9.03" shape="189.60,195.20 192.05,194.85 193.80,193.80 194.85,192.05 195.20,189.60"/>
    </edge>
    <edge id=":11_16" function="internal">
        <lane id=":11_16_0" index="0" speed="13.90" length="20.80" shape="189.60,195.20 210.40,195.20"/>
        <lane id=":11_16_1" index="1" speed="13.90" length="20.80" shape="189.60,198.40 210.40,198.40"/>
    </edge>
    <edge id=":11_18" function="internal">
        <lane id=":11_18_0" index="0" speed="9.26" length="19.35" shape="189.60,198.40 194.85,199.15 198.60,201.40 200.85,205.15 201.60,210.40"/>
    </edge>
    <edge id=":11_19" function="internal">
        <lane id=":11_19_0" index="0" speed="3.65" length="4.67" shape="189.60,198.40 190.80,199.20 191.20,200.00 190.80,200.80 189.60,201.60"/>
    </edge>
    <edge id=":12_0" function="internal">
        <lane id=":12_0_0" index="0" speed="11.05" length="27.99" shape="195.20,310.40 193.56,307.95 188.62,306.20 180.40,305.15 168.89,304.80"/>
    </edge>
    <edge id=":12_1" function="internal">
        <lane id=":12_1_0" index="0" speed="13.90" length="33.01" shape="195.20,310.40 193.63,306.36 188.91,301.68 181.04,296.35 170.03,290.38"/>
    </edge>
    <edge id=":12_2" function="internal">
        <lane id=":12_2_0" index="0" speed="13.90" length="20.80" shape="195.20,310.40 195.20,289.60"/>
        <lane id=":12_2_1" index="1" speed="13.90" length="20.80" shape="198.40,310.40 198.40,289.60"/>
    </edge>
    <edge id=":12_4" function="internal">
        <lane id=":12_4_0" index="0" speed="9.26" length="5.01" shape="198.40,310.40 199.11,305.44"/>
    </edge>
    <edge id=":12_5" function="internal">
        <lane id=":12_5_0" index="0" speed="3.65" length="1.44" shape="198.40,310.40 199.20,309.20"/>
    </edge>
    <edge id=":12_24" function="internal">
        <lane id=":12_24_0" index="0" speed="9.26" length="14.34" shape="199.11,305.44 199.15,305.15 201.40,301.40 205.15,299.15 210.40,298.40"/>
    </edge>
    <edge id=":12_25" function="internal">
        <lane id=":12_25_0" index="0" speed="3.65" length="3.23" shape="199.20,309.20 200.00,308.80 200.80,309.20 201.60,310.40"/>
    </edge>
    <edge id=":12_6" function="internal">
        <lane id=":12_6_0" index="0" speed="6.51" length="9.03" shape="210.40,304.80 207.95,305.15 206.20,306.20 205.15,307.95 204.80,310.40"/>
    </edge>
    <edge id=":12_7" function="internal">
        <lane id=":12_7_0" index="0" speed="13.90" length="41.51" shape="210.40,304.80 168.89,304.80"/>
        <lane id=":12_7_1" index="1" speed="13.90" length="41.51" shape="210.40,301.60 168.89,301.60"/>
    </edge>
    <edge id=":12_9" function="internal">
        <lane id=":12_9_0" index="0" speed="13.90" length="41.62" shape="210.40,301.60 201.35,300.03 190.53,296.24 179.91,291.60 171.46,287.52"/>
    </edge>
    <edge id=":12_10" function="internal">
        <lane id=":12_10_0" index="0" speed="9.26" length="19.35" shape="210.40,301.60 205.15,300.85 201.40,298.60 199.15,294.85 198.40,289.60"/>
    </edge>
    <edge id=":12_11" function="internal">
        <lane id=":12_11_0" index="0" speed="3.65" length="4.67" shape="210.40,301.60 209.20,300.80 208.80,300.00 209.20,299.20 210.40,298.40"/>
    </edge>
    <edge id=":12_12" function="internal">
        <lane id=":12_12_0" index="0" speed="6.51" length="9.03" shape="204.80,289.60 205.15,292.05 206.20,293.80 207.95,294.85 210.40,295.20"/>
    </edge>
    <edge id=":12_13" function="internal">
        <lane id=":12_13_0" index="0" speed="13.90" length="20.80" shape="204.80,289.60 204.80,310.40"/>
        <lane id=":12_13_1" index="1" speed="13.90" length="20.80" shape="201.60,289.60 201.60,310.40"/>
    </edge>
    <edge id=":12_15" function="internal">
        <lane id=":12_15_0" index="0" speed="12.75" length="2.10" shape="201.60,289.60 200.84,291.56"/>
    </edge>
    <edge id=":12_16" function="internal">
        <lane id=":12_16_0" index="0" speed="10.63" length="1.80" shape="201.60,289.60 200.81,291.21"/>
    </edge>
    <edge id=":12_17" function="internal">
        <lane id=":12_17_0" index="0" speed="3.65" length="1.44" shape="201.60,289.60 200.80,290.80"/>
    </edge>
    <edge id=":12_26" function="internal">
        <lane id=":12_26_0" index="0" speed="12.75" length="35.52" shape="200.84,291.56 199.56,294.85 193.42,298.60 183.20,300.85 168.89,301.60"/>
    </edge>
    <edge id=":12_27" function="internal">
        <lane id=":12_27_0" index="0" speed="10.63" length="33.18" shape="200.81,291.21 199.00,294.90 192.16,295.43 182.50,292.53 171.46,287.52"/>
    </edge>
    <edge id=":12_28" function="internal">
        <lane id=":12_28_0" index="0" speed="3.65" length="3.23" shape="200.80,290.80 200.00,291.20 199.20,290.80 198.40,289.60"/>
    </edge>
    <edge id=":12_18" function="internal">
        <lane id=":12_18_0" index="0" speed="5.60" length="11.85" shape="168.89,295.20 173.00,294.90 174.56,294.00 173.57,292.49 170.03,290.38"/>
    </edge>
    <edge id=":12_19" function="internal">
        <lane id=":12_19_0" index="0" speed="11.05" length="27.99" shape="168.89,295.20 180.40,294.85 188.62,293.80 193.56,292.05 195.20,289.60"/>
    </edge>
    <edge id=":12_20" function="internal">
        <lane id=":12_20_0" index="0" speed="13.90" length="41.51" shape="168.89,295.20 210.40,295.20"/>
        <lane id=":12_20_1" index="1" speed="13.90" length="41.51" shape="168.89,298.40 210.40,298.40"/>
    </edge>
    <edge id=":12_22" function="internal">
        <lane id=":12_22_0" index="0" speed="12.75" length="37.62" shape="168.89,298.40 183.20,299.15 193.42,301.40 199.56,305.15 201.60,310.40"/>
    </edge>
    <edge id=":12_23" function="internal">
        <lane id=":12_23_0" index="0" speed="3.65" length="4.67" shape="168.89,298.40 170.09,299.20 170.49,300.00 170.09,300.80 168.89,301.60"/>
    </edge>
    <edge id=":13_0" function="internal">
        <lane id=":13_0_0" index="0" speed="13.90" length="20.80" shape="210.40,404.80 189.60,404.80"/>
        <lane id=":13_0_1" index="1" speed="13.90" length="20.80" shape="210.40,401.60 189.60,401.60"/>
    </edge>
    <edge id=":13_2" function="internal">
        <lane id=":13_2_0" index="0" speed="9.26" length="5.01" shape="210.40,401.60 205.44,400.89"/>
    </edge>
    <edge id=":13_3" function="internal">
        <lane id=":13_3_0" index="0" speed="3.65" length="1.44" shape="210.40,401.60 209.20,400.80"/>
    </edge>
    <edge id=":13_11" function="internal">
        <lane id=":13_11_0" index="0" speed="9.26" length="14.34" shape="205.44,400.89 205.15,400.85 201.40,398.60 199.15,394.85 198.40,389.60"/>
    </edge>
    <edge id=":13_12" function="internal">
        <lane id=":13_12_0" index="0" speed="3.65" length="3.23" shape="209.20,400.80 208.80,400.00 209.20,399.20 210.40,398.40"/>
    </edge>
    <edge id=":13_4" function="internal">
        <lane id=":13_4_0" index="0" speed="6.51" length="9.03" shape="204.80,389.60 205.15,392.05 206.20,393.80 207.95,394.85 210.40,395.20"/>
    </edge>
    <edge id=":13_5" function="internal">
        <lane id=":13_5_0" index="0" speed="9.26" length="19.35" shape="201.60,389.60 200.85,394.85 198.60,398.60 194.85,400.85 189.60,401.60"/>
    </edge>
    <edge id=":13_6" function="internal">
        <lane id=":13_6_0" index="0" speed="3.65" length="4.67" shape="201.60,389.60 200.80,390.80 200.00,391.20 199.20,390.80 198.40,389.60"/>
    </edge>
    <edge id=":13_7" function="internal">
        <lane id=":13_7_0" index="0" speed="6.51" length="9.03" shape="189.60,395.20 192.05,394.85 193.80,393.80 194.85,392.05 195.20,389.60"/>
    </edge>
    <edge id=":13_8" function="internal">
        <lane id=":13_8_0" index="0" speed="13.90" length="20.80" shape="189.60,395.20 210.40,395.20"/>
        <lane id=":13_8_1" index="1" speed="13.90" length="20.80" shape="189.60,398.40 210.40,398.40"/>
    </edge>
    <edge id=":13_10" function="internal">
        <lane id=":13_10_0" index="0" speed="3.65" length="1.44" shape="189.60,398.40 190.80,399.20"/>
    </edge>
    <edge id=":13_13" function="internal">
        <lane id=":13_13_0" index="0" speed="3.65" length="3.23" shape="190.80,399.20 191.20,400.00 190.80,400.80 189.60,401.60"/>
    </edge>
    <edge id=":15_0" function="internal">
        <lane id=":15_0_0" index="0" speed="6.51" length="9.03" shape="295.20,113.60 294.85,111.15 293.80,109.40 292.05,108.35 289.60,108.00"/>
        <lane id=":15_0_1" index="1" speed="8.00" length="14.19" shape="298.40,113.60 297.85,109.75 296.20,107.00 293.45,105.35 289.60,104.80"/>
        <lane id=":15_0_2" index="2" speed="8.67" length="16.85" shape="298.40,113.60 297.85,108.35 296.20,104.60 293.45,102.35 289.60,101.60"/>
    </edge>
    <edge id=":15_3" function="internal">
        <lane id=":15_3_0" index="0" speed="11.39" length="29.85" shape="289.60,92.00 296.25,93.35 301.00,97.40 303.85,104.15 304.80,113.60"/>
        <lane id=":15_3_1" index="1" speed="10.41" length="24.73" shape="289.60,95.20 294.85,96.35 298.60,99.80 300.85,105.55 301.60,113.60"/>
    </edge>
    <edge id=":16_0" function="internal">
        <lane id=":16_0_0" index="0" speed="5.61" length="9.32" shape="295.20,223.65 294.84,220.83 293.75,219.38 291.93,219.28 289.38,220.54"/>
    </edge>
    <edge id=":16_1" function="internal">
        <lane id=":16_1_0" index="0" speed="10.03" length="22.89" shape="295.20,223.65 294.65,215.40 293.00,209.51 290.25,205.98 286.40,204.80"/>
    </edge>
    <edge id=":16_2" function="internal">
        <lane id=":16_2_0" index="0" speed="13.90" length="34.05" shape="295.20,223.65 295.20,189.60"/>
        <lane id=":16_2_1" index="1" speed="13.90" length="34.05" shape="298.40,223.65 298.40,189.60"/>
    </edge>
    <edge id=":16_4" function="internal">
        <lane id=":16_4_0" index="0" speed="11.57" length="10.36" shape="298.40,223.65 299.10,213.31"/>
    </edge>
    <edge id=":16_5" function="internal">
        <lane id=":16_5_0" index="0" speed="3.65" length="1.44" shape="298.40,223.65 299.20,222.45"/>
    </edge>
    <edge id=":16_25" function="internal">
        <lane id=":16_25_0" index="0" speed="11.57" length="20.43" shape="299.10,213.31 299.15,212.60 301.40,204.71 305.15,199.98 310.40,198.40"/>
    </edge>
    <edge id=":16_26" function="internal">
        <lane id=":16_26_0" index="0" speed="3.65" length="3.23" shape="299.20,222.45 300.00,222.05 300.80,222.45 301.60,223.65"/>
    </edge>
    <edge id=":16_6" function="internal">
        <lane id=":16_6_0" index="0" speed="9.60" length="20.90" shape="310.40,204.80 307.95,205.98 306.20,209.51 305.15,215.40 304.80,223.65"/>
    </edge>
    <edge id=":16_7" function="internal">
        <lane id=":16_7_0" index="0" speed="13.90" length="26.85" shape="310.40,204.80 304.16,205.82 299.35,208.60 294.38,212.76 287.61,217.88"/>
    </edge>
    <edge id=":16_8" function="internal">
        <lane id=":16_8_0" index="0" speed="13.90" length="24.00" shape="310.40,204.80 286.40,204.80"/>
        <lane id=":16_8_1" index="1" speed="13.90" length="24.00" shape="310.40,201.60 286.40,201.60"/>
    </edge>
    <edge id=":16_10" function="internal">
        <lane id=":16_10_0" index="0" speed="9.26" length="19.35" shape="310.40,201.60 305.15,200.85 301.40,198.60 299.15,194.85 298.40,189.60"/>
    </edge>
    <edge id=":16_11" function="internal">
        <lane id=":16_11_0" index="0" speed="3.65" length="4.67" shape="310.40,201.60 309.20,200.80 308.80,200.00 309.20,199.20 310.40,198.40"/>
    </edge>
    <edge id=":16_12" function="internal">
        <lane id=":16_12_0" index="0" speed="6.51" length="9.03" shape="304.80,189.60 305.15,192.05 306.20,193.80 307.95,194.85 310.40,195.20"/>
    </edge>
    <edge id=":16_13" function="internal">
        <lane id=":16_13_0" index="0" speed="13.90" length="34.05" shape="304.80,189.60 304.80,223.65"/>
        <lane id=":16_13_1" index="1" speed="13.90" length="34.05" shape="301.60,189.60 301.60,223.65"/>
    </edge>
    <edge id=":16_15" function="internal">
        <lane id=":16_15_0" index="0" speed="13.90" length="5.27" shape="301.60,189.60 300.89,194.82"/>
    </edge>
    <edge id=":16_16" function="internal">
        <lane id=":16_16_0" index="0" speed="9.84" length="4.01" shape="301.60,189.60 300.89,193.55"/>
    </edge>
    <edge id=":16_17" function="internal">
        <lane id=":16_17_0" index="0" speed="3.65" length="1.44" shape="301.60,189.60 300.80,190.80"/>
    </edge>
    <edge id=":16_27" function="internal">
        <lane id=":16_27_0" index="0" speed="13.90" length="26.08" shape="300.89,194.82 300.61,196.86 297.66,203.55 292.73,209.67 285.83,215.21"/>
    </edge>
    <edge id=":16_28" function="internal">
        <lane id=":16_28_0" index="0" speed="9.84" length="17.98" shape="300.89,193.55 300.65,194.85 297.80,198.60 293.05,200.85 286.40,201.60"/>
    </edge>
    <edge id=":16_29" function="internal">
        <lane id=":16_29_0" index="0" speed="3.65" length="3.23" shape="300.80,190.80 300.00,191.20 299.20,190.80 298.40,189.60"/>
    </edge>
    <edge id=":16_18" function="internal">
        <lane id=":16_18_0" index="0" speed="7.33" length="11.73" shape="286.40,195.20 290.25,194.85 293.00,193.80 294.65,192.05 295.20,189.60"/>
    </edge>
    <edge id=":16_19" function="internal">
        <lane id=":16_19_0" index="0" speed="13.90" length="24.13" shape="286.40,195.20 310.40,195.20"/>
        <lane id=":16_19_1" index="1" speed="13.90" length="24.13" shape="286.40,195.20 292.96,195.70 298.40,196.80 303.84,197.90 310.40,198.40"/>
    </edge>
    <edge id=":16_21" function="internal">
        <lane id=":16_21_0" index="0" speed="12.83" length="38.12" shape="286.40,195.20 294.45,196.98 300.20,202.31 303.65,211.20 304.80,223.65"/>
        <lane id=":16_21_1" index="1" speed="11.96" length="33.02" shape="286.40,198.40 293.05,199.98 297.80,204.71 300.65,212.60 301.60,223.65"/>
    </edge>
    <edge id=":16_23" function="internal">
        <lane id=":16_23_0" index="0" speed="7.11" length="19.22" shape="286.40,198.40 290.33,199.99 290.70,203.82 288.34,208.47 284.06,212.55"/>
    </edge>
    <edge id=":16_24" function="internal">
        <lane id=":16_24_0" index="0" speed="3.65" length="4.67" shape="286.40,198.40 287.60,199.20 288.00,200.00 287.60,200.80 286.40,201.60"/>
    </edge>
    <edge id=":17_0" function="internal">
        <lane id=":17_0_0" index="0" speed="6.51" length="9.03" shape="295.20,310.40 294.85,307.95 293.80,306.20 292.05,305.15 289.60,304.80"/>
    </edge>
    <edge id=":17_1" function="internal">
        <lane id=":17_1_0" index="0" speed="13.90" length="20.80" shape="295.20,310.40 295.20,289.60"/>
        <lane id=":17_1_1" index="1" speed="13.90" length="20.80" shape="298.40,310.40 298.40,289.60"/>
    </edge>
    <edge id=":17_3" function="internal">
        <lane id=":17_3_0" index="0" speed="3.65" length="1.44" shape="298.40,310.40 299.20,309.20"/>
    </edge>
    <edge id=":17_11" function="internal">
        <lane id=":17_11_0" index="0" speed="3.65" length="3.23" shape="299.20,309.20 300.00,308.80 300.80,309.20 301.60,310.40"/>
    </edge>
    <edge id=":17_4" function="internal">
        <lane id=":17_4_0" index="0" speed="13.90" length="20.80" shape="304.80,289.60 304.80,310.40"/>
        <lane id=":17_4_1" index="1" speed="13.90" length="20.80" shape="301.60,289.60 301.60,310.40"/>
    </edge>
    <edge id=":17_6" function="internal">
        <lane id=":17_6_0" index="0" speed="9.26" length="5.01" shape="301.60,289.60 300.89,294.56"/>
    </edge>
    <edge id=":17_7" function="internal">
        <lane id=":17_7_0" index="0" speed="3.65" length="1.44" shape="301.60,289.60 300.80,290.80"/>
    </edge>
    <edge id=":17_12" function="internal">
        <lane id=":17_12_0" index="0" speed="9.26" length="14.34" shape="300.89,294.56 300.85,294.85 298.60,298.60 294.85,300.85 289.60,301.60"/>
    </edge>
    <edge id=":17_13" function="internal">
        <lane id=":17_13_0" index="0" speed="3.65" length="3.23" shape="300.80,290.80 300.00,291.20 299.20,290.80 298.40,289.60"/>
    </edge>
    <edge id=":17_8" function="internal">
        <lane id=":17_8_0" index="0" speed="6.51" length="9.03" shape="289.60,295.20 292.05,294.85 293.80,293.80 294.85,292.05 295.20,289.60"/>
    </edge>
    <edge id=":17_9" function="internal">
        <lane id=":17_9_0" index="0" speed="9.26" length="19.35" shape="289.60,298.40 294.85,299.15 298.60,301.40 300.85,305.15 301.60,310.40"/>
    </edge>
    <edge id=":17_10" function="internal">
        <lane id=":17_10_0" index="0" speed="3.65" length="4.67" shape="289.60,298.40 290.80,299.20 291.20,300.00 290.80,300.80 289.60,301.60"/>
    </edge>
    <edge id=":18_0" function="internal">
        <lane id=":18_0_0" index="0" speed="8.96" length="18.06" shape="304.80,393.60 304.10,398.50 302.00,402.00 298.50,404.10 293.60,404.80"/>
        <lane id=":18_0_1" index="1" speed="7.66" length="12.90" shape="301.60,393.60 301.10,397.10 299.60,399.60 297.10,401.10 293.60,401.60"/>
    </edge>
    <edge id=":18_2" function="internal">
        <lane id=":18_2_0" index="0" speed="3.90" length="2.58" shape="293.60,395.20 294.30,395.10 294.80,394.80 295.10,394.30 295.20,393.60"/>
        <lane id=":18_2_1" index="1" speed="6.08" length="7.74" shape="293.60,398.40 295.70,398.10 297.20,397.20 298.10,395.70 298.40,393.60"/>
    </edge>
    <edge id=":19_0" function="internal">
        <lane id=":19_0_0" index="0" speed="3.65" length="4.67" shape="400.00,198.40 401.20,199.20 401.60,200.00 401.20,200.80 400.00,201.60"/>
    </edge>
    <edge id=":2_0" function="internal">
        <lane id=":2_0_0" index="0" speed="13.90" length="31.30" shape="14.23,212.48 5.90,207.48 -0.04,202.00 -3.61,196.04 -4.80,189.60"/>
    </edge>
    <edge id=":2_1" function="internal">
        <lane id=":2_1_0" index="0" speed="6.28" length="11.68" shape="15.66,209.62 12.59,206.68 11.78,202.96 13.19,199.76 13.31,199.71"/>
    </edge>
    <edge id=":2_8" function="internal">
        <lane id=":2_8_0" index="0" speed="6.28" length="3.73" shape="13.31,199.71 16.80,198.40"/>
    </edge>
    <edge id=":2_2" function="internal">
        <lane id=":2_2_0" index="0" speed="11.39" length="29.85" shape="16.80,204.80 7.35,203.85 0.60,201.00 -3.45,196.25 -4.80,189.60"/>
        <lane id=":2_2_1" index="1" speed="10.41" length="24.73" shape="16.80,201.60 8.75,200.85 3.00,198.60 -0.45,194.85 -1.60,189.60"/>
    </edge>
    <edge id=":2_4" function="internal">
        <lane id=":2_4_0" index="0" speed="3.65" length="4.67" shape="16.80,201.60 15.60,200.80 15.20,200.00 15.60,199.20 16.80,198.40"/>
    </edge>
    <edge id=":2_5" function="internal">
        <lane id=":2_5_0" index="0" speed="8.10" length="14.57" shape="4.80,189.60 5.55,192.05 7.80,193.80 11.55,194.85 16.80,195.20"/>
        <lane id=":2_5_1" index="1" speed="9.32" length="19.63" shape="1.60,189.60 2.55,193.45 5.40,196.20 10.15,197.85 16.80,198.40"/>
    </edge>
    <edge id=":2_7" function="internal">
        <lane id=":2_7_0" index="0" speed="3.65" length="2.34" shape="1.60,189.60 0.80,190.80 0.00,191.20"/>
    </edge>
    <edge id=":2_9" function="internal">
        <lane id=":2_9_0" index="0" speed="3.65" length="2.34" shape="0.00,191.20 -0.80,190.80 -1.60,189.60"/>
    </edge>
    <edge id=":4_0" function="internal">
        <lane id=":4_0_0" index="0" speed="3.65" length="4.67" shape="36.68,401.60 35.48,400.80 35.08,400.00 35.48,399.20 36.68,398.40"/>
    </edge>
    <edge id=":4_1" function="internal">
        <lane id=":4_1_0" index="0" speed="5.48" length="10.68" shape="35.12,390.05 32.32,392.30 31.64,393.91 33.10,394.88 36.68,395.20"/>
        <lane id=":4_1_1" index="1" speed="7.69" length="22.83" shape="33.34,387.39 27.35,392.21 25.92,395.65 29.02,397.71 36.68,398.40"/>
    </edge>
    <edge id=":5_0" function="internal">
        <lane id=":5_0_0" index="0" speed="3.65" length="4.67" shape="98.40,0.00 99.20,-1.20 100.00,-1.60 100.80,-1.20 101.60,0.00"/>
    </edge>
    <edge id=":6_0" function="internal">
        <lane id=":6_0_0" index="0" speed="6.51" length="9.03" shape="95.20,116.80 94.85,114.35 93.80,112.60 92.05,111.55 89.60,111.20"/>
    </edge>
    <edge id=":6_1" function="internal">
        <lane id=":6_1_0" index="0" speed="13.90" length="30.40" shape="95.20,116.80 95.20,86.40"/>
        <lane id=":6_1_1" index="1" speed="13.90" length="30.40" shape="98.40,116.80 98.40,86.40"/>
    </edge>
    <edge id=":6_3" function="internal">
        <lane id=":6_3_0" index="0" speed="10.96" length="27.54" shape="98.40,116.80 99.15,107.35 101.40,100.60 105.15,96.55 110.40,95.20"/>
        <lane id=":6_3_1" index="1" speed="10.41" length="24.73" shape="98.40,116.80 99.15,108.75 101.40,103.00 105.15,99.55 110.40,98.40"/>
    </edge>
    <edge id=":6_5" function="internal">
        <lane id=":6_5_0" index="0" speed="3.65" length="4.67" shape="98.40,116.80 99.20,115.60 100.00,115.20 100.80,115.60 101.60,116.80"/>
    </edge>
    <edge id=":6_6" function="internal">
        <lane id=":6_6_0" index="0" speed="7.33" length="11.73" shape="110.40,108.00 107.95,108.55 106.20,110.20 105.15,112.95 104.80,116.80"/>
    </edge>
    <edge id=":6_7" function="internal">
        <lane id=":6_7_0" index="0" speed="13.90" length="21.04" shape="110.40,108.00 104.19,108.50 100.00,109.60 95.81,110.70 89.60,111.20"/>
        <lane id=":6_7_1" index="1" speed="13.90" length="21.04" shape="110.40,104.80 104.19,105.30 100.00,106.40 95.81,107.50 89.60,108.00"/>
        <lane id=":6_7_2" index="2" speed="13.90" length="21.04" shape="110.40,101.60 104.19,102.10 100.00,103.20 95.81,104.30 89.60,104.80"/>
        <lane id=":6_7_3" index="3" speed="13.90" length="21.04" shape="110.40,101.60 89.60,101.60"/>
    </edge>
    <edge id=":6_11" function="internal">
        <lane id=":6_11_0" index="0" speed="9.84" length="21.99" shape="110.40,101.60 105.15,100.65 101.40,97.80 99.15,93.05 98.40,86.40"/>
    </edge>
    <edge id=":6_12" function="internal">
        <lane id=":6_12_0" index="0" speed="3.65" length="4.67" shape="110.40,101.60 109.20,100.80 108.80,100.00 109.20,99.20 110.40,98.40"/>
    </edge>
    <edge id=":6_13" function="internal">
        <lane id=":6_13_0" index="0" speed="6.51" length="9.03" shape="104.80,86.40 105.15,88.85 106.20,90.60 107.95,91.65 110.40,92.00"/>
    </edge>
    <edge id=":6_14" function="internal">
        <lane id=":6_14_0" index="0" speed="13.90" length="30.40" shape="104.80,86.40 104.80,116.80"/>
        <lane id=":6_14_1" index="1" speed="13.90" length="30.40" shape="101.60,86.40 101.60,116.80"/>
    </edge>
    <edge id=":6_16" function="internal">