<?xml version="1.0" encoding="UTF-8"?>

<!-- generated on 2023-06-26 02:46:19.557673 by randomTrips.py v1_16_0+0000-94ec4c6cd72
<configuration>
    <end value="150"/>
    <fringe-factor value="1"/>
    <net-file value="data/simulationConfigurations/tmp/sim_0\sim_0.net.xml"/>
    <period value="1.0"/>
    <output-trip-file value="data/simulationConfigurations/tmp/sim_0\sim_0.rou.xml"/>
    <prefix value="random_trip_"/>
</configuration>
-->

<routes xmlns:xsi="http://www.w3.org/2001/XMLSchema-instance" xsi:noNamespaceSchemaLocation="http://sumo.dlr.de/xsd/routes_file.xsd">
    <trip id="random_trip_0" depart="0.00" from="E0195" to="799463fc-2278-4151-a31b-241f68501268_4"/>
    <trip id="random_trip_1" depart="1.00" from="E0124" to="E0114"/>
    <trip id="random_trip_2" depart="2.00" from="E0210" to="E0200"/>
    <trip id="random_trip_3" depart="3.00" from="E0236" to="E0051"/>
    <trip id="random_trip_4" depart="4.00" from="E0162" to="7ef43029-0c35-4ef0-9c1d-c6dd1f5118e0_2"/>
    <trip id="random_trip_5" depart="5.00" from="E0105" to="E0175"/>
    <trip id="random_trip_6" depart="6.00" from="799463fc-2278-4151-a31b-241f68501268_4" to="E0104"/>
    <trip id="random_trip_7" depart="7.00" from="E0197" to="E0179"/>
    <trip id="random_trip_8" depart="8.00" from="E0105" to="E0189"/>
    <trip id="random_trip_9" depart="9.00" from="E0223" to="4c4a7d38-ba8c-44c9-8a69-031263357d44_2"/>
    <trip id="random_trip_10" depart="10.00" from="E0223" to="E0203"/>
    <trip id="random_trip_11" depart="11.00" from="E0140" to="E0093"/>
    <trip id="random_trip_12" depart="12.00" from="E0245" to="E0142"/>
    <trip id="random_trip_13" depart="13.00" from="E0051" to="E0054"/>
    <trip id="random_trip_14" depart="14.00" from="E0230" to="E0191"/>
    <trip id="random_trip_15" depart="15.00" from="E0223" to="E0207"/>
    <trip id="random_trip_16" depart="16.00" from="E0177" to="e4f9d556-0011-4fcf-a638-307fdc33ace2_2"/>
    <trip id="random_trip_17" depart="17.00" from="E0156" to="E0180"/>
    <trip id="random_trip_18" depart="18.00" from="E0225" to="E0192"/>
    <trip id="random_trip_19" depart="19.00" from="E0232" to="E0188"/>
    <trip id="random_trip_20" depart="20.00" from="E0204" to="83a0c53b-ef8f-4363-ab92-e5143bd93bac_1"/>
    <trip id="random_trip_21" depart="21.00" from="E0110" to="E0129"/>
    <trip id="random_trip_22" depart="22.00" from="E0031" to="E0115"/>
    <trip id="random_trip_23" depart="23.00" from="E0051" to="E0127"/>
    <trip id="random_trip_24" depart="24.00" from="E0194" to="E0156"/>
    <trip id="random_trip_25" depart="25.00" from="E0153" to="E0105"/>
    <trip id="random_trip_26" depart="26.00" from="E0119" to="E0243"/>
    <trip id="random_trip_27" depart="27.00" from="E0195" to="E0191"/>
    <trip id="random_trip_28" depart="28.00" from="E0096" to="E0207"/>
    <trip id="random_trip_29" depart="29.00" from="E0093" to="E0157"/>
    <trip id="random_trip_30" depart="30.00" from="f5000412-8d34-41c0-89fb-9e5b8ce8eb98_3" to="E0195"/>
    <trip id="random_trip_31" depart="31.00" from="E0180" to="E0200"/>
    <trip id="random_trip_32" depart="32.00" from="E0230" to="E0217"/>
    <trip id="random_trip_33" depart="33.00" from="E0110" to="7ef43029-0c35-4ef0-9c1d-c6dd1f5118e0_2"/>
    <trip id="random_trip_34" depart="34.00" from="E0134" to="E0124"/>
    <trip id="random_trip_35" depart="35.00" from="E0104" to="E0243"/>
    <trip id="random_trip_36" depart="36.00" from="E0234" to="E0134"/>
    <trip id="random_trip_37" depart="37.00" from="E0197" to="E0160"/>
    <trip id="random_trip_38" depart="38.00" from="E0239" to="E0167"/>
    <trip id="random_trip_39" depart="39.00" from="E0119" to="E0118"/>
    <trip id="random_trip_40" depart="40.00" from="E0180" to="E0124"/>
    <trip id="random_trip_41" depart="41.00" from="E0189" to="E0236"/>
    <trip id="random_trip_42" depart="42.00" from="E0160" to="E0110"/>
    <trip id="random_trip_43" depart="43.00" from="f867bb86-7a16-4667-b83e-aa077686f526_3" to="E0176"/>
    <trip id="random_trip_44" depart="44.00" from="E0041" to="E0007"/>
    <trip id="random_trip_45" depart="45.00" from="E0054" to="E0193"/>
    <trip id="random_trip_46" depart="46.00" from="E0219" to="E0163"/>
    <trip id="random_trip_47" depart="47.00" from="E0007" to="E0159"/>
    <trip id="random_trip_48" depart="48.00" from="f867bb86-7a16-4667-b83e-aa077686f526_3" to="E0178"/>
    <trip id="random_trip_49" depart="49.00" from="E0247" to="E0231"/>
    <trip id="random_trip_50" depart="50.00" from="54b1303f-f5de-4fdf-8bb2-1302a62589a2_2" to="E0205"/>
    <trip id="random_trip_51" depart="51.00" from="E0200" to="E0178"/>
    <trip id="random_trip_52" depart="52.00" from="E0119" to="E0195"/>
    <trip id="random_trip_53" depart="53.00" from="E0057" to="E0164"/>
    <trip id="random_trip_54" depart="54.00" from="E0166" to="E0245"/>
    <trip id="random_trip_55" depart="55.00" from="E0234" to="E0124"/>
    <trip id="random_trip_56" depart="56.00" from="E0173" to="E0101"/>
    <trip id="random_trip_57" depart="57.00" from="E0239" to="E0234"/>
    <trip id="random_trip_58" depart="58.00" from="E0129" to="E0195"/>
    <trip id="random_trip_59" depart="59.00" from="E0191" to="E0093"/>
    <trip id="random_trip_60" depart="60.00" from="E0216" to="E0179"/>
    <trip id="random_trip_61" depart="61.00" from="E0218" to="E0178"/>
    <trip id="random_trip_62" depart="62.00" from="527f7d04-a56e-45f0-8ad8-6e8f10b890d5_2" to="E0140"/>
    <trip id="random_trip_63" depart="63.00" from="799463fc-2278-4151-a31b-241f68501268_4" to="E0242"/>
    <trip id="random_trip_64" depart="64.00" from="E0234" to="E0225"/>
    <trip id="random_trip_65" depart="65.00" from="E0130" to="E0011"/>
    <trip id="random_trip_66" depart="66.00" from="E0234" to="E0244"/>
    <trip id="random_trip_67" depart="67.00" from="E0041" to="E0172"/>
    <trip id="random_trip_68" depart="68.00" from="E0011" to="E0216"/>
    <trip id="random_trip_69" depart="69.00" from="E0216" to="E0068"/>
    <trip id="random_trip_70" depart="70.00" from="E0169" to="E0180"/>
    <trip id="random_trip_71" depart="71.00" from="E0119" to="E0234"/>
    <trip id="random_trip_72" depart="72.00" from="E0162" to="E0105"/>
    <trip id="random_trip_73" depart="73.00" from="E0178" to="E0207"/>
    <trip id="random_trip_74" depart="74.00" from="E0103" to="E0134"/>
    <trip id="random_trip_75" depart="75.00" from="f867bb86-7a16-4667-b83e-aa077686f526_3" to="E0197"/>
    <trip id="random_trip_76" depart="76.00" from="E0164" to="E0176"/>
    <trip id="random_trip_77" depart="77.00" from="E0062" to="E0114"/>
    <trip id="random_trip_78" depart="78.00" from="E0140" to="E0189"/>
    <trip id="random_trip_79" depart="79.00" from="E0110" to="E0110"/>
    <trip id="random_trip_80" depart="80.00" from="E0011" to="E0194"/>
    <trip id="random_trip_81" depart="81.00" from="E0110" to="E0238"/>
    <trip id="random_trip_82" depart="82.00" from="E0231" to="E0031"/>
    <trip id="random_trip_83" depart="83.00" from="E0114" to="E0199"/>
    <trip id="random_trip_84" depart="84.00" from="E0105" to="E0088"/>
    <trip id="random_trip_85" depart="85.00" from="E0243" to="E0187"/>
    <trip id="random_trip_86" depart="86.00" from="E0169" to="E0218"/>
    <trip id="random_trip_87" depart="87.00" from="E0223" to="E0103"/>
    <trip id="random_trip_88" depart="88.00" from="E0051" to="E0164"/>
    <trip id="random_trip_89" depart="89.00" from="E0162" to="E0169"/>
    <trip id="random_trip_90" depart="90.00" from="E0207" to="E0199"/>
    <trip id="random_trip_91" depart="91.00" from="f5000412-8d34-41c0-89fb-9e5b8ce8eb98_3" to="E0054"/>
    <trip id="random_trip_92" depart="92.00" from="E0160" to="E0142"/>
    <trip id="random_trip_93" depart="93.00" from="E0232" to="E0118"/>
    <trip id="random_trip_94" depart="94.00" from="E0101" to="E0166"/>
    <trip id="random_trip_95" depart="95.00" from="E0162" to="E0127"/>
    <trip id="random_trip_96" depart="96.00" from="E0115" to="E0241"/>
    <trip id="random_trip_97" depart="97.00" from="E0164" to="E0232"/>
    <trip id="random_trip_98" depart="98.00" from="E0179" to="E0007"/>
    <trip id="random_trip_99" depart="99.00" from="f867bb86-7a16-4667-b83e-aa077686f526_3" to="E0226"/>
    <trip id="random_trip_100" depart="100.00" from="E0247" to="E0242"/>
    <trip id="random_trip_101" depart="101.00" from="E0230" to="E0096"/>
    <trip id="random_trip_102" depart="102.00" from="E0170" to="E0110"/>
    <trip id="random_trip_103" depart="103.00" from="E0160" to="E0011"/>
    <trip id="random_trip_104" depart="104.00" from="E0156" to="f5000412-8d34-41c0-89fb-9e5b8ce8eb98_3"/>
    <trip id="random_trip_105" depart="105.00" from="E0119" to="E0218"/>
    <trip id="random_trip_106" depart="106.00" from="E0166" to="E0163"/>
    <trip id="random_trip_107" depart="107.00" from="E0245" to="f867bb86-7a16-4667-b83e-aa077686f526_3"/>
    <trip id="random_trip_108" depart="108.00" from="E0180" to="E0205"/>
    <trip id="random_trip_109" depart="109.00" from="E0091" to="E0130"/>
    <trip id="random_trip_110" depart="110.00" from="E0247" to="E0188"/>
    <trip id="random_trip_111" depart="111.00" from="E0178" to="E0212"/>
    <trip id="random_trip_112" depart="112.00" from="E0007" to="E0189"/>
    <trip id="random_trip_113" depart="113.00" from="E0173" to="E0231"/>
    <trip id="random_trip_114" depart="114.00" from="E0093" to="E0245"/>
    <trip id="random_trip_115" depart="115.00" from="E0031" to="E0103"/>
    <trip id="random_trip_116" depart="116.00" from="E0190" to="E0199"/>
    <trip id="random_trip_117" depart="117.00" from="E0114" to="E0062"/>
    <trip id="random_trip_118" depart="118.00" from="E0236" to="E0118"/>
    <trip id="random_trip_119" depart="119.00" from="E0190" to="E0192"/>
    <trip id="random_trip_120" depart="120.00" from="E0162" to="E0189"/>
    <trip id="random_trip_121" depart="121.00" from="E0176" to="E0242"/>
    <trip id="random_trip_122" depart="122.00" from="E0104" to="E0205"/>
    <trip id="random_trip_123" depart="123.00" from="E0114" to="E0160"/>
    <trip id="random_trip_124" depart="124.00" from="E0199" to="E0130"/>
    <trip id="random_trip_125" depart="125.00" from="E0134" to="E0214"/>
    <trip id="random_trip_126" depart="126.00" from="E0011" to="E0167"/>
    <trip id="random_trip_127" depart="127.00" from="f867bb86-7a16-4667-b83e-aa077686f526_3" to="f867bb86-7a16-4667-b83e-aa077686f526_3"/>
    <trip id="random_trip_128" depart="128.00" from="E0011" to="E0110"/>
    <trip id="random_trip_129" depart="129.00" from="E0119" to="E0242"/>
    <trip id="random_trip_130" depart="130.00" from="E0235" to="E0234"/>
    <trip id="random_trip_131" depart="131.00" from="E0153" to="E0096"/>
    <trip id="random_trip_132" depart="132.00" from="E0226" to="E0203"/>
    <trip id="random_trip_133" depart="133.00" from="E0192" to="f5000412-8d34-41c0-89fb-9e5b8ce8eb98_3"/>
    <trip id="random_trip_134" depart="134.00" from="E0197" to="4c4a7d38-ba8c-44c9-8a69-031263357d44_2"/>
    <trip id="random_trip_135" depart="135.00" from="E0224" to="E0130"/>
    <trip id="random_trip_136" depart="136.00" from="E0198" to="E0243"/>
    <trip id="random_trip_137" depart="137.00" from="E0068" to="E0062"/>
    <trip id="random_trip_138" depart="138.00" from="E0054" to="E0180"/>
    <trip id="random_trip_139" depart="139.00" from="E0124" to="E0191"/>
    <trip id="random_trip_140" depart="140.00" from="E0205" to="E0104"/>
    <trip id="random_trip_141" depart="141.00" from="E0194" to="E0124"/>
    <trip id="random_trip_142" depart="142.00" from="E0170" to="E0238"/>
    <trip id="random_trip_143" depart="143.00" from="E0230" to="E0051"/>
    <trip id="random_trip_144" depart="144.00" from="E0162" to="E0125"/>
    <trip id="random_trip_145" depart="145.00" from="527f7d04-a56e-45f0-8ad8-6e8f10b890d5_2" to="E0217"/>
    <trip id="random_trip_146" depart="146.00" from="E0194" to="E0124"/>
    <trip id="random_trip_147" depart="147.00" from="E0212" to="E0180"/>
    <trip id="random_trip_148" depart="148.00" from="E0163" to="54b1303f-f5de-4fdf-8bb2-1302a62589a2_2"/>
    <trip id="random_trip_149" depart="149.00" from="E0031" to="E0235"/>
</routes>
