<?xml version="1.0" encoding="UTF-8"?>

<!-- generated on 2023-06-26 02:05:33 by Eclipse SUMO netconvert Version 1.16.0
<configuration xmlns:xsi="http://www.w3.org/2001/XMLSchema-instance" xsi:noNamespaceSchemaLocation="http://sumo.dlr.de/xsd/netconvertConfiguration.xsd">

    <input>
        <node-files value="data/simulationConfigurations/tests/5\5.nod.xml"/>
        <edge-files value="data/simulationConfigurations/tests/5\5.edg.xml"/>
    </input>

    <output>
        <output-file value="data/simulationConfigurations/tests/5\5.net.xml"/>
    </output>

</configuration>
-->

<net version="1.16" junctionCornerDetail="5" limitTurnSpeed="5.50" xmlns:xsi="http://www.w3.org/2001/XMLSchema-instance" xsi:noNamespaceSchemaLocation="http://sumo.dlr.de/xsd/net_file.xsd">

    <location netOffset="-24.25,-18.07" convBoundary="0.00,0.00,1004.17,1034.31" origBoundary="24.25,18.07,1028.42,1052.37" projParameter="!"/>

    <edge id=":V0001_0" function="internal">
        <lane id=":V0001_0_0" index="0" speed="10.21" length="17.29" shape="240.79,676.53 236.06,681.21 232.89,685.06 231.28,688.09 231.24,690.30"/>
        <lane id=":V0001_0_1" index="1" speed="11.04" length="20.33" shape="238.05,674.70 232.91,679.94 229.56,684.48 228.02,688.34 228.28,691.51"/>
    </edge>
    <edge id=":V0001_2" function="internal">
        <lane id=":V0001_2_0" index="0" speed="8.10" length="24.35" shape="238.05,674.70 232.17,677.75 226.58,677.02 222.64,673.11 221.69,666.65"/>
        <lane id=":V0001_2_1" index="1" speed="7.46" length="20.35" shape="238.05,674.70 233.21,677.11 228.71,676.18 225.58,672.61 224.86,667.06"/>
    </edge>
    <edge id=":V0001_4" function="internal">
        <lane id=":V0001_4_0" index="0" speed="5.34" length="11.45" shape="238.05,674.70 234.79,676.05 232.62,675.78 231.53,673.87 231.54,670.34"/>
    </edge>
    <edge id=":V0002_0" function="internal">
        <lane id=":V0002_0_0" index="0" speed="6.44" length="17.23" shape="363.88,1020.12 369.73,1018.04 371.57,1016.49 369.40,1015.46 363.21,1014.95"/>
    </edge>
    <edge id=":V0002_1" function="internal">
        <lane id=":V0002_1_0" index="0" speed="6.59" length="16.96" shape="363.46,1016.91 360.02,1017.36 359.47,1015.81 361.80,1012.27 367.02,1006.73"/>
    </edge>
    <edge id=":V0002_2" function="internal">
        <lane id=":V0002_2_0" index="0" speed="5.83" length="9.13" shape="360.05,1005.30 361.39,1007.60 363.00,1008.61 364.87,1008.32 367.02,1006.73"/>
    </edge>
    <edge id=":V0002_3" function="internal">
        <lane id=":V0002_3_0" index="0" speed="8.42" length="10.77" shape="357.09,1006.51 358.75,1010.17 360.33,1012.80 361.81,1014.39 363.21,1014.95"/>
    </edge>
    <edge id=":V0003_0" function="internal">
        <lane id=":V0003_0_0" index="0" speed="8.50" length="17.52" shape="473.32,295.13 469.59,290.78 466.84,287.23 464.40,284.41 461.58,282.23"/>
    </edge>
    <edge id=":V0003_1" function="internal">
        <lane id=":V0003_1_0" index="0" speed="11.50" length="40.54" shape="501.98,282.95 494.19,283.51 481.55,283.82 469.02,283.51 461.58,282.23"/>
    </edge>
    <edge id=":V0003_2" function="internal">
        <lane id=":V0003_2_0" index="0" speed="13.50" length="34.68" shape="500.44,278.60 489.54,283.72 479.43,286.04 470.11,285.54 467.38,284.48"/>
    </edge>
    <edge id=":V0003_4" function="internal">
        <lane id=":V0003_4_0" index="0" speed="13.50" length="6.22" shape="467.38,284.48 461.58,282.23"/>
    </edge>
    <edge id=":V0003_3" function="internal">
        <lane id=":V0003_3_0" index="0" speed="5.31" length="5.79" shape="466.30,285.34 465.91,284.56 464.46,283.65 462.76,282.81 461.58,282.23"/>
    </edge>
    <edge id=":V0004_0" function="internal">
        <lane id=":V0004_0_0" index="0" speed="7.35" length="22.22" shape="299.51,135.16 298.65,128.46 300.24,122.53 303.59,119.42 307.99,121.21"/>
        <lane id=":V0004_0_1" index="1" speed="6.14" length="14.93" shape="302.52,134.07 301.52,129.33 301.71,124.89 303.09,122.38 305.68,123.42"/>
    </edge>
    <edge id=":V0004_2" function="internal">
        <lane id=":V0004_2_0" index="0" speed="22.68" length="17.83" shape="293.19,111.22 298.69,112.80 302.63,113.73 306.14,115.35 310.31,118.99"/>
        <lane id=":V0004_2_1" index="1" speed="21.79" length="17.83" shape="292.12,114.24 297.21,115.66 300.88,116.46 304.14,117.88 307.99,121.21"/>
        <lane id=":V0004_2_2" index="2" speed="21.15" length="17.83" shape="292.12,114.24 296.70,115.99 299.67,117.63 302.26,119.87 305.68,123.42"/>
    </edge>
    <edge id=":V0004_5" function="internal">
        <lane id=":V0004_5_0" index="0" speed="8.68" length="25.63" shape="294.53,135.70 296.17,127.72 298.95,121.39 302.89,118.59 307.99,121.21"/>
    </edge>
    <edge id=":V0005_0" function="internal">
        <lane id=":V0005_0_0" index="0" speed="10.75" length="19.09" shape="564.43,832.57 559.08,831.90 554.78,830.09 551.52,827.15 549.31,823.07"/>
        <lane id=":V0005_0_1" index="1" speed="9.65" length="15.21" shape="564.49,829.37 560.15,828.84 556.67,827.44 554.06,825.15 552.31,821.98"/>
    </edge>
    <edge id=":V0005_2" function="internal">
        <lane id=":V0005_2_0" index="0" speed="7.51" length="15.78" shape="561.71,821.51 558.12,827.25 554.86,829.42 551.92,828.03 551.06,826.40"/>
        <lane id=":V0005_2_1" index="1" speed="5.63" length="10.28" shape="558.85,820.08 556.87,823.34 555.12,824.74 553.61,824.29 552.31,821.98"/>
    </edge>
    <edge id=":V0005_5" function="internal">
        <lane id=":V0005_5_0" index="0" speed="7.51" length="3.76" shape="551.06,826.40 549.31,823.07"/>
    </edge>
    <edge id=":V0005_4" function="internal">
        <lane id=":V0005_4_0" index="0" speed="9.53" length="13.85" shape="542.33,834.51 545.84,830.77 548.18,827.62 549.33,825.05 549.31,823.07"/>
    </edge>
    <edge id=":V0006_0" function="internal">
        <lane id=":V0006_0_0" index="0" speed="18.04" length="75.16" shape="954.01,1032.50 956.65,1027.93 959.08,1014.06 961.31,990.90 963.34,958.43"/>
    </edge>
    <edge id=":V0006_1" function="internal">
        <lane id=":V0006_1_0" index="0" speed="14.00" length="75.40" shape="954.01,1032.50 956.88,1027.95 959.95,1014.13 963.23,991.04 966.70,958.68"/>
    </edge>
    <edge id=":V0007_0" function="internal">
        <lane id=":V0007_0_0" index="0" speed="6.10" length="9.06" shape="998.93,210.97 998.69,208.42 997.68,206.72 995.90,205.90 993.34,205.93"/>
    </edge>
    <edge id=":V0007_1" function="internal">
        <lane id=":V0007_1_0" index="0" speed="13.50" length="12.30" shape="1002.12,211.13 1002.34,207.33 1002.45,204.55 1002.32,202.01 1001.84,198.88"/>
    </edge>
    <edge id=":V0008_0" function="internal">
        <lane id=":V0008_0_0" index="0" speed="8.84" length="31.38" shape="13.67,30.06 8.16,23.89 7.84,16.59 12.01,10.47 19.97,7.82"/>
        <lane id=":V0008_0_1" index="1" speed="7.62" length="22.83" shape="14.80,27.01 10.89,22.56 10.87,17.31 14.12,12.92 20.02,11.02"/>
    </edge>
    <edge id=":V0008_2" function="internal">
        <lane id=":V0008_2_0" index="0" speed="4.95" length="9.86" shape="15.93,23.97 14.14,21.51 13.94,19.63 15.32,18.34 18.28,17.64"/>
    </edge>
    <edge id=":V0009_0" function="internal">
        <lane id=":V0009_0_0" index="0" speed="8.74" length="23.34" shape="979.29,818.53 983.13,823.95 983.49,828.53 980.36,832.28 973.75,835.18"/>
    </edge>
    <edge id=":V0009_1" function="internal">
        <lane id=":V0009_1_0" index="0" speed="7.63" length="20.42" shape="976.96,820.72 981.21,826.17 982.02,830.02 979.39,832.28 973.32,832.95"/>
    </edge>
    <edge id=":V0009_2" function="internal">
        <lane id=":V0009_2_0" index="0" speed="3.65" length="4.65" shape="974.63,822.91 975.21,824.23 975.12,825.11 974.36,825.57 972.93,825.60"/>
    </edge>
    <edge id=":V0009_3" function="internal">
        <lane id=":V0009_3_0" index="0" speed="5.39" length="7.59" shape="977.83,843.47 977.85,840.76 977.32,839.00 976.22,838.17 974.56,838.27"/>
    </edge>
    <edge id=":V0009_4" function="internal">
        <lane id=":V0009_4_0" index="0" speed="7.44" length="12.88" shape="977.83,843.47 977.92,838.90 977.21,835.63 975.67,833.64 973.32,832.95"/>
    </edge>
    <edge id=":V0009_5" function="internal">
        <lane id=":V0009_5_0" index="0" speed="13.55" length="19.08" shape="977.83,843.47 977.94,838.06 977.15,833.29 975.48,829.13 972.93,825.60"/>
    </edge>
    <edge id=":V0010_0" function="internal">
        <lane id=":V0010_0_0" index="0" speed="5.46" length="10.31" shape="968.23,18.82 967.28,15.53 966.04,14.31 964.52,15.15 962.70,18.04"/>
    </edge>
    <edge id=":V0010_1" function="internal">
        <lane id=":V0010_1_0" index="0" speed="11.68" length="44.88" shape="968.23,18.82 964.89,13.86 957.80,14.66 946.96,21.22 932.37,33.55"/>
    </edge>
    <edge id=":V0010_2" function="internal">
        <lane id=":V0010_2_0" index="0" speed="12.10" length="42.58" shape="968.23,18.82 965.16,15.92 957.76,16.87 946.03,21.65 929.96,30.27"/>
    </edge>
    <edge id=":V0010_3" function="internal">
        <lane id=":V0010_3_0" index="0" speed="8.50" length="24.86" shape="961.17,-4.73 965.01,-2.94 965.43,1.91 963.38,8.78 959.84,16.61"/>
    </edge>
    <edge id=":V0010_4" function="internal">
        <lane id=":V0010_4_0" index="0" speed="11.22" length="47.46" shape="961.21,-1.53 962.58,1.50 956.64,9.55 945.79,20.83 932.37,33.55"/>
    </edge>
    <edge id=":V0010_5" function="internal">
        <lane id=":V0010_5_0" index="0" speed="11.03" length="50.46" shape="961.21,-1.53 965.30,1.21 958.25,8.34 944.47,17.80 928.36,27.50"/>
        <lane id=":V0010_5_1" index="1" speed="10.55" length="46.05" shape="961.21,-1.53 962.71,0.83 955.31,7.04 942.25,15.53 926.76,24.73"/>
    </edge>
    <edge id=":V0011_0" function="internal">
        <lane id=":V0011_0_0" index="0" speed="16.00" length="21.15" shape="398.70,408.33 391.48,388.44"/>
        <lane id=":V0011_0_1" index="1" speed="16.00" length="21.15" shape="401.71,407.23 394.49,387.35"/>
    </edge>
    <edge id=":V0011_2" function="internal">
        <lane id=":V0011_2_0" index="0" speed="12.71" length="18.31" shape="401.71,407.23 400.20,401.95 399.70,397.24 400.22,393.09 401.76,389.51"/>
        <lane id=":V0011_2_1" index="1" speed="12.20" length="16.84" shape="401.71,407.23 400.89,403.50 401.08,399.58 402.27,395.47 404.48,391.19"/>
    </edge>
    <edge id=":V0011_4" function="internal">
        <lane id=":V0011_4_0" index="0" speed="8.50" length="17.18" shape="391.44,406.17 391.98,403.96 391.67,400.44 390.50,395.64 388.48,389.54"/>
    </edge>
    <edge id=":V0011_5" function="internal">
        <lane id=":V0011_5_0" index="0" speed="12.50" length="19.83" shape="391.44,406.17 394.09,400.93 395.24,397.00 396.38,393.06 399.04,387.82"/>
        <lane id=":V0011_5_1" index="1" speed="12.50" length="19.83" shape="394.16,407.86 396.82,402.61 397.96,398.68 399.10,394.75 401.76,389.51"/>
        <lane id=":V0011_5_2" index="2" speed="12.50" length="19.83" shape="394.16,407.86 404.48,391.19"/>
    </edge>
    <edge id=":V0012_0" function="internal">
        <lane id=":V0012_0_0" index="0" speed="16.50" length="12.97" shape="291.96,191.33 280.88,184.91"/>
        <lane id=":V0012_0_1" index="1" speed="16.50" length="12.97" shape="293.56,188.56 282.49,182.14"/>
        <lane id=":V0012_0_2" index="2" speed="16.50" length="12.97" shape="293.56,188.56 290.48,186.19 288.83,183.97 287.18,181.74 284.09,179.37"/>
    </edge>
    <edge id=":V0012_3" function="internal">
        <lane id=":V0012_3_0" index="0" speed="8.54" length="11.40" shape="295.17,185.79 292.28,183.78 290.31,181.63 289.26,179.33 289.13,176.89"/>
    </edge>
    <edge id=":V0012_4" function="internal">
        <lane id=":V0012_4_0" index="0" speed="7.85" length="9.50" shape="283.74,193.40 283.87,190.49 283.44,188.10 282.44,186.24 280.88,184.91"/>
    </edge>
    <edge id=":V0012_5" function="internal">
        <lane id=":V0012_5_0" index="0" speed="24.50" length="17.07" shape="286.91,193.81 289.13,176.89"/>
    </edge>
    <edge id=":V0013_0" function="internal">
        <lane id=":V0013_0_0" index="0" speed="19.50" length="18.33" shape="974.37,838.33 956.85,843.55"/>
        <lane id=":V0013_0_1" index="1" speed="19.50" length="18.33" shape="973.55,835.24 955.93,840.48"/>
    </edge>
    <edge id=":V0013_2" function="internal">
        <lane id=":V0013_2_0" index="0" speed="5.41" length="7.46" shape="973.55,835.24 972.03,835.78 969.61,836.63 967.38,837.23 966.42,837.05"/>
    </edge>
    <edge id=":V0013_3" function="internal">
        <lane id=":V0013_3_0" index="0" speed="7.31" length="14.72" shape="969.17,846.04 968.52,843.54 966.25,842.29 962.36,842.29 956.85,843.55"/>
    </edge>
    <edge id=":V0013_4" function="internal">
        <lane id=":V0013_4_0" index="0" speed="14.50" length="8.83" shape="969.17,846.04 969.62,837.22"/>
    </edge>
    <edge id=":V0014_0" function="internal">
        <lane id=":V0014_0_0" index="0" speed="8.50" length="18.25" shape="702.74,257.96 696.75,258.67 691.99,259.14 688.20,259.99 685.15,261.83"/>
    </edge>
    <edge id=":V0014_1" function="internal">
        <lane id=":V0014_1_0" index="0" speed="13.00" length="13.99" shape="702.24,254.79 697.87,254.97 694.59,254.37 691.66,253.72 688.38,253.73"/>
    </edge>
    <edge id=":V0014_2" function="internal">
        <lane id=":V0014_2_0" index="0" speed="15.00" length="20.25" shape="700.03,248.09 685.15,261.83"/>
    </edge>
    <edge id=":V0014_3" function="internal">
        <lane id=":V0014_3_0" index="0" speed="15.00" length="13.16" shape="700.03,248.09 697.36,250.29 694.68,251.89 691.77,253.00 688.38,253.73"/>
    </edge>
    <edge id=":V0015_0" function="internal">
        <lane id=":V0015_0_0" index="0" speed="6.04" length="9.72" shape="702.56,545.37 700.71,535.83"/>
    </edge>
    <edge id=":V0015_1" function="internal">
        <lane id=":V0015_1_0" index="0" speed="17.00" length="15.00" shape="702.56,545.37 692.32,534.40"/>
        <lane id=":V0015_1_1" index="1" speed="17.00" length="15.00" shape="704.90,543.19 694.66,532.22"/>
        <lane id=":V0015_1_2" index="2" speed="17.00" length="15.00" shape="707.23,541.00 697.00,530.04"/>
    </edge>
    <edge id=":V0015_4" function="internal">
        <lane id=":V0015_4_0" index="0" speed="16.00" length="7.63" shape="704.11,529.00 700.71,535.83"/>
    </edge>
    <edge id=":V0015_5" function="internal">
        <lane id=":V0015_5_0" index="0" speed="6.76" length="12.51" shape="704.11,529.00 701.89,532.47 699.58,534.16 697.17,534.07 694.66,532.22"/>
        <lane id=":V0015_5_1" index="1" speed="5.87" length="9.11" shape="704.11,529.00 702.61,531.18 700.93,532.08 699.05,531.70 697.00,530.04"/>
    </edge>
    <edge id=":V0016_0" function="internal">
        <lane id=":V0016_0_0" index="0" speed="5.67" length="7.90" shape="462.75,278.40 466.19,285.51"/>
        <lane id=":V0016_0_1" index="1" speed="6.58" length="11.04" shape="460.44,280.61 463.82,284.01 466.37,286.24 468.06,287.30 468.91,287.19"/>
    </edge>
    <edge id=":V0016_2" function="internal">
        <lane id=":V0016_2_0" index="0" speed="11.50" length="18.53" shape="458.12,282.82 462.63,286.09 466.63,287.09 470.63,288.08 475.13,291.35"/>
        <lane id=":V0016_2_1" index="1" speed="11.50" length="18.53" shape="458.12,282.82 462.19,286.35 465.47,288.19 468.75,290.03 472.82,293.56"/>
        <lane id=":V0016_2_2" index="2" speed="11.50" length="18.53" shape="458.12,282.82 470.51,295.77"/>
    </edge>
    <edge id=":V0016_5" function="internal">
        <lane id=":V0016_5_0" index="0" speed="18.50" length="11.60" shape="457.68,293.17 459.86,290.60 461.94,289.34 464.01,288.07 466.19,285.51"/>
        <lane id=":V0016_5_1" index="1" speed="18.50" length="11.60" shape="460.40,294.86 462.58,292.29 464.66,291.02 466.73,289.76 468.91,287.19"/>
    </edge>
    <edge id=":V0016_7" function="internal">
        <lane id=":V0016_7_0" index="0" speed="6.89" length="12.24" shape="463.12,296.54 465.58,293.37 468.01,291.81 470.43,291.88 472.82,293.56"/>
        <lane id=":V0016_7_1" index="1" speed="6.03" length="9.07" shape="463.12,296.54 464.78,294.56 466.56,293.77 468.47,294.17 470.51,295.77"/>
    </edge>
    <edge id=":V0017_0" function="internal">
        <lane id=":V0017_0_0" index="0" speed="20.50" length="12.62" shape="973.12,832.95 969.97,833.39 967.43,834.45 964.64,835.51 960.70,835.94"/>
        <lane id=":V0017_0_1" index="1" speed="20.50" length="12.62" shape="973.12,832.95 960.76,832.74"/>
    </edge>
    <edge id=":V0017_2" function="internal">
        <lane id=":V0017_2_0" index="0" speed="5.83" length="7.24" shape="973.12,832.95 971.71,832.57 970.74,831.49 970.22,829.72 970.14,827.24"/>
    </edge>
    <edge id=":V0017_3" function="internal">
        <lane id=":V0017_3_0" index="0" speed="5.46" length="6.22" shape="966.43,836.85 960.65,839.14"/>
        <lane id=":V0017_3_1" index="1" speed="6.44" length="9.08" shape="969.63,837.02 968.40,836.44 965.56,836.11 962.53,835.98 960.70,835.94"/>
    </edge>
    <edge id=":V0017_5" function="internal">
        <lane id=":V0017_5_0" index="0" speed="10.50" length="9.80" shape="969.63,837.02 970.14,827.24"/>
    </edge>
    <edge id=":V0018_0" function="internal">
        <lane id=":V0018_0_0" index="0" speed="5.82" length="9.14" shape="434.17,505.99 432.92,503.63 431.35,502.56 429.47,502.79 427.28,504.32"/>
    </edge>
    <edge id=":V0018_1" function="internal">
        <lane id=":V0018_1_0" index="0" speed="20.00" length="17.63" shape="434.17,505.99 428.15,489.43"/>
        <lane id=":V0018_1_1" index="1" speed="20.00" length="17.63" shape="437.18,504.90 431.16,488.33"/>
    </edge>
    <edge id=":V0018_3" function="internal">
        <lane id=":V0018_3_0" index="0" speed="18.50" length="17.63" shape="440.23,492.36 427.28,504.32"/>
        <lane id=":V0018_3_1" index="1" speed="18.50" length="17.63" shape="438.05,490.01 425.11,501.97"/>
    </edge>
    <edge id=":V0018_5" function="internal">
        <lane id=":V0018_5_0" index="0" speed="5.82" length="9.14" shape="438.05,490.01 435.86,491.53 433.98,491.76 432.41,490.70 431.16,488.33"/>
    </edge>
    <edge id=":V0019_0" function="internal">
        <lane id=":V0019_0_0" index="0" speed="12.48" length="11.98" shape="324.26,212.70 322.79,209.63 321.08,207.93 318.81,206.71 315.64,205.05"/>
        <lane id=":V0019_0_1" index="1" speed="12.50" length="14.22" shape="327.27,211.61 325.55,207.92 323.60,205.82 320.98,204.28 317.24,202.28"/>
    </edge>
    <edge id=":V0019_2" function="internal">
        <lane id=":V0019_2_0" index="0" speed="12.50" length="15.84" shape="330.28,210.52 328.21,206.29 326.11,203.72 324.01,201.16 321.94,196.93"/>
        <lane id=":V0019_2_1" index="1" speed="12.50" length="15.84" shape="330.28,210.52 324.95,195.83"/>
    </edge>
    <edge id=":V0019_4" function="internal">
        <lane id=":V0019_4_0" index="0" speed="17.00" length="16.97" shape="333.37,207.93 330.07,206.59 326.46,205.77 322.27,204.62 317.24,202.28"/>
        <lane id=":V0019_4_1" index="1" speed="17.00" length="16.97" shape="333.37,207.93 318.85,199.51"/>
    </edge>
    <edge id=":V0019_6" function="internal">
        <lane id=":V0019_6_0" index="0" speed="13.97" length="15.11" shape="333.37,207.93 330.58,205.96 328.48,203.54 326.72,200.29 324.95,195.83"/>
    </edge>
    <edge id=":V0020_0" function="internal">
        <lane id=":V0020_0_0" index="0" speed="12.94" length="20.49" shape="863.47,226.28 859.18,227.63 855.28,230.25 851.78,234.16 848.68,239.34"/>
    </edge>
    <edge id=":V0020_1" function="internal">
        <lane id=":V0020_1_0" index="0" speed="17.00" length="19.34" shape="863.47,226.28 860.02,227.84 856.51,230.61 852.08,233.54 845.88,235.52"/>
        <lane id=":V0020_1_1" index="1" speed="17.00" length="19.34" shape="863.47,226.28 859.89,227.35 856.11,229.06 851.49,230.89 845.39,232.36"/>
        <lane id=":V0020_1_2" index="2" speed="17.00" length="19.34" shape="863.47,226.28 844.89,229.20"/>
    </edge>
    <edge id=":V0020_4" function="internal">
        <lane id=":V0020_4_0" index="0" speed="10.50" length="20.76" shape="860.68,222.46 857.23,228.24 853.84,232.58 850.87,236.07 848.68,239.34"/>
    </edge>
    <edge id=":V0020_5" function="internal">
        <lane id=":V0020_5_0" index="0" speed="7.00" length="17.44" shape="857.81,221.03 855.13,225.55 852.17,228.95 848.92,231.22 845.39,232.36"/>
        <lane id=":V0020_5_1" index="1" speed="7.00" length="15.88" shape="857.81,221.03 855.76,224.04 852.92,226.40 849.30,228.12 844.89,229.20"/>
    </edge>
    <edge id=":V0021_0" function="internal">
        <lane id=":V0021_0_0" index="0" speed="14.50" length="14.16" shape="972.79,825.45 969.90,823.83 966.49,823.40 962.78,822.64 958.96,820.02"/>
        <lane id=":V0021_0_1" index="1" speed="14.50" length="14.16" shape="972.79,825.45 970.22,823.43 967.53,822.16 964.60,820.64 961.29,817.83"/>
        <lane id=":V0021_0_2" index="2" speed="14.50" length="14.16" shape="972.79,825.45 963.63,815.65"/>
    </edge>
    <edge id=":V0021_3" function="internal">
        <lane id=":V0021_3_0" index="0" speed="11.56" length="12.71" shape="972.79,825.45 970.42,822.56 968.77,819.72 967.83,816.93 967.61,814.20"/>
    </edge>
    <edge id=":V0021_4" function="internal">
        <lane id=":V0021_4_0" index="0" speed="7.07" length="4.32" shape="964.04,820.84 963.84,819.72 963.21,819.13 962.32,818.64 961.29,817.83"/>
        <lane id=":V0021_4_1" index="1" speed="8.69" length="6.74" shape="967.24,820.94 967.03,819.09 966.30,817.97 965.13,817.01 963.63,815.65"/>
    </edge>
    <edge id=":V0021_6" function="internal">
        <lane id=":V0021_6_0" index="0" speed="11.50" length="7.15" shape="970.44,821.04 970.02,818.93 969.00,817.62 967.99,816.31 967.61,814.20"/>
        <lane id=":V0021_6_1" index="1" speed="11.50" length="7.15" shape="970.44,821.04 970.81,814.36"/>
    </edge>
    <edge id=":V0022_0" function="internal">
        <lane id=":V0022_0_0" index="0" speed="5.86" length="7.10" shape="558.33,390.88 557.78,383.80"/>
        <lane id=":V0022_0_1" index="1" speed="6.46" length="8.83" shape="560.67,388.70 555.61,381.45"/>
    </edge>
    <edge id=":V0022_2" function="internal">
        <lane id=":V0022_2_0" index="0" speed="18.50" length="14.57" shape="563.01,386.51 559.71,383.70 556.95,382.36 554.19,381.02 550.89,378.21"/>
        <lane id=":V0022_2_1" index="1" speed="18.50" length="14.57" shape="563.01,386.51 553.22,376.03"/>
    </edge>
    <edge id=":V0022_4" function="internal">
        <lane id=":V0022_4_0" index="0" speed="14.00" length="7.97" shape="561.15,376.34 559.78,378.28 559.47,380.07 559.16,381.86 557.78,383.80"/>
        <lane id=":V0022_4_1" index="1" speed="14.00" length="7.97" shape="561.15,376.34 555.61,381.45"/>
    </edge>
    <edge id=":V0022_6" function="internal">
        <lane id=":V0022_6_0" index="0" speed="6.52" length="9.04" shape="561.15,376.34 559.12,377.74 557.12,378.16 555.15,377.59 553.22,376.03"/>
    </edge>
    <edge id=":V0023_0" function="internal">
        <lane id=":V0023_0_0" index="0" speed="7.34" length="8.66" shape="700.62,536.01 701.23,537.28 703.06,539.26 705.11,541.22 706.36,542.39"/>
    </edge>
    <edge id=":V0023_1" function="internal">
        <lane id=":V0023_1_0" index="0" speed="16.50" length="7.00" shape="700.62,536.01 700.16,538.06 700.60,539.64 701.04,541.22 700.57,543.27"/>
        <lane id=":V0023_1_1" index="1" speed="16.50" length="7.00" shape="700.62,536.01 697.71,541.84"/>
    </edge>
    <edge id=":V0023_3" function="internal">
        <lane id=":V0023_3_0" index="0" speed="18.50" length="17.38" shape="700.01,526.49 703.01,531.08 704.11,535.41 704.74,539.25 706.36,542.39"/>
    </edge>
    <edge id=":V0023_4" function="internal">
        <lane id=":V0023_4_0" index="0" speed="9.76" length="15.92" shape="697.70,528.71 700.38,532.23 701.75,535.83 701.82,539.51 700.57,543.27"/>
        <lane id=":V0023_4_1" index="1" speed="8.53" length="11.97" shape="695.39,530.92 697.45,533.60 698.52,536.32 698.61,539.06 697.71,541.84"/>
    </edge>
    <edge id=":V0024_0" function="internal">
        <lane id=":V0024_0_0" index="0" speed="3.90" length="5.12" shape="446.59,273.54 450.31,270.02"/>
        <lane id=":V0024_0_1" index="1" speed="4.39" length="7.03" shape="446.59,273.54 448.91,274.75 449.92,274.94 449.61,274.09 447.98,272.22"/>
    </edge>
    <edge id=":V0024_2" function="internal">
        <lane id=":V0024_2_0" index="0" speed="11.00" length="8.47" shape="446.59,273.54 439.25,269.29"/>
    </edge>
    <edge id=":V0024_3" function="internal">
        <lane id=":V0024_3_0" index="0" speed="14.00" length="10.34" shape="444.84,259.67 452.64,267.83"/>
        <lane id=":V0024_3_1" index="1" speed="14.00" length="10.34" shape="443.16,262.55 450.31,270.02"/>
        <lane id=":V0024_3_2" index="2" speed="14.00" length="10.34" shape="441.49,265.43 447.98,272.22"/>
    </edge>
    <edge id=":V0025_0" function="internal">
        <lane id=":V0025_0_0" index="0" speed="5.76" length="10.89" shape="963.24,811.01 967.24,821.14"/>
        <lane id=":V0025_0_1" index="1" speed="6.12" length="12.51" shape="963.24,811.01 970.43,821.24"/>
    </edge>
    <edge id=":V0025_2" function="internal">
        <lane id=":V0025_2_0" index="0" speed="22.50" length="16.91" shape="963.24,811.01 966.34,812.79 970.22,813.67 974.60,815.07 979.15,818.38"/>
        <lane id=":V0025_2_1" index="1" speed="22.50" length="16.91" shape="963.24,811.01 966.02,813.18 969.18,814.90 972.77,817.06 976.82,820.58"/>
        <lane id=":V0025_2_2" index="2" speed="22.50" length="16.91" shape="963.24,811.01 974.49,822.77"/>
    </edge>
    <edge id=":V0025_5" function="internal">
        <lane id=":V0025_5_0" index="0" speed="15.00" length="6.53" shape="970.19,826.38 964.04,821.04"/>
        <lane id=":V0025_5_1" index="1" speed="15.00" length="6.53" shape="970.19,826.38 969.78,824.72 968.73,823.76 967.68,822.81 967.24,821.14"/>
        <lane id=":V0025_5_2" index="2" speed="15.00" length="6.53" shape="970.19,826.38 970.43,821.24"/>
    </edge>
    <edge id=":V0025_8" function="internal">
        <lane id=":V0025_8_0" index="0" speed="6.29" length="13.20" shape="970.19,826.38 970.84,821.49 972.16,818.89 974.16,818.58 976.82,820.58"/>
        <lane id=":V0025_8_1" index="1" speed="5.19" length="8.47" shape="970.19,826.38 970.61,823.27 971.46,821.63 972.76,821.46 974.49,822.77"/>
    </edge>
    <edge id=":V0026_0" function="internal">
        <lane id=":V0026_0_0" index="0" speed="5.85" length="7.19" shape="557.64,383.94 564.74,385.04"/>
        <lane id=":V0026_0_1" index="1" speed="6.45" length="8.97" shape="555.47,381.59 562.42,387.26"/>
    </edge>
    <edge id=":V0026_2" function="internal">
        <lane id=":V0026_2_0" index="0" speed="16.50" length="8.13" shape="555.47,381.59 554.06,383.57 553.72,385.38 553.38,387.19 551.97,389.17"/>
        <lane id=":V0026_2_1" index="1" speed="16.50" length="8.13" shape="555.47,381.59 549.80,386.82"/>
    </edge>
    <edge id=":V0026_4" function="internal">
        <lane id=":V0026_4_0" index="0" speed="16.00" length="14.57" shape="554.67,374.51 564.74,385.04"/>
        <lane id=":V0026_4_1" index="1" speed="16.00" length="14.57" shape="552.35,376.73 562.42,387.26"/>
        <lane id=":V0026_4_2" index="2" speed="16.00" length="14.57" shape="550.04,378.94 560.11,389.47"/>
    </edge>
    <edge id=":V0026_7" function="internal">
        <lane id=":V0026_7_0" index="0" speed="6.47" length="9.03" shape="550.04,378.94 551.49,380.96 551.93,382.94 551.36,384.90 549.80,386.82"/>
    </edge>

    <edge id="E0001" from="V0001" to="V0002" priority="-1">
        <lane id="E0001_0" index="0" speed="26.00" length="340.31" shape="231.24,690.30 360.05,1005.30"/>
        <lane id="E0001_1" index="1" speed="26.00" length="340.31" shape="228.28,691.51 357.09,1006.51"/>
    </edge>
    <edge id="E0007" from="V0002" to="V0005" priority="-1">
        <lane id="E0007_0" index="0" speed="25.00" length="245.76" shape="367.02,1006.73 542.33,834.51"/>
    </edge>
    <edge id="E0009" from="V0002" to="V0006" priority="-1">
        <lane id="E0009_0" index="0" speed="17.00" length="591.06" shape="363.21,1014.95 954.01,1032.50"/>
    </edge>
    <edge id="E0015" from="V0006" to="V0009" priority="-1">
        <lane id="E0015_0" index="0" speed="11.00" length="115.75" shape="966.70,958.68 977.83,843.47"/>
    </edge>
    <edge id="E0017" from="V0007" to="V0010" priority="-1">
        <lane id="E0017_0" index="0" speed="20.00" length="183.18" shape="1001.84,198.88 968.23,18.82"/>
    </edge>
    <edge id="E0023" from="V0010" to="V0003" priority="-1">
        <lane id="E0023_0" index="0" speed="21.00" length="496.14" shape="929.96,30.27 500.44,278.60"/>
        <lane id="E0023_1" index="1" speed="21.00" length="496.14" shape="928.36,27.50 498.84,275.83"/>
        <lane id="E0023_2" index="2" speed="21.00" length="496.14" shape="926.76,24.73 497.24,273.06"/>
    </edge>
    <edge id="E0027" from="V0008" to="V0004" priority="-1">
        <lane id="E0027_0" index="0" speed="26.00" length="290.35" shape="19.40,14.64 293.19,111.22"/>
        <lane id="E0027_1" index="1" speed="26.00" length="290.35" shape="18.28,17.64 292.12,114.24"/>
    </edge>
    <edge id="E0039" from="V0008" to="V0010" priority="-1">
        <lane id="E0039_0" index="0" speed="12.00" length="941.28" shape="19.97,7.82 961.17,-4.73"/>
        <lane id="E0039_1" index="1" speed="12.00" length="941.28" shape="20.02,11.02 961.21,-1.53"/>
    </edge>
    <edge id="E0041" from="V0001" to="V0011" priority="-1">
        <lane id="E0041_0" index="0" speed="10.00" length="308.72" shape="228.88,668.56 391.44,406.17"/>
        <lane id="E0041_1" index="1" speed="10.00" length="308.72" shape="231.54,670.34 394.16,407.86"/>
    </edge>
    <edge id="E0046" from="V0001" to="V0012" priority="-1">
        <lane id="E0046_0" index="0" speed="26.00" length="477.30" shape="221.69,666.65 283.74,193.40"/>