<nodes><node id="V0001" x="248.31466666666665" y="703.5066666666667" type="priority" /><node id="V0002" x="383.6706666666667" y="1034.5066666666667" type="priority" /><node id="V0003" x="495.718" y="304.17600000000004" type="priority" /><node id="V0004" x="322.6986666666666" y="136.23466666666667" type="priority" /><node id="V0005" x="579.152" y="842.4733333333334" type="priority" /><node id="V0006" x="985.2533333333333" y="1052.3733333333334" type="priority" /><node id="V0007" x="1028.4199999999998" y="220.67733333333334" type="priority" /><node id="V0008" x="24.252066666666668" y="30.958000000000002" type="priority" /><node id="V0009" x="1004.8466666666667" y="849.5400000000001" type="priority" /><node id="V0010" x="990.5933333333334" y="18.066933333333335" type="priority" /><node id="V0011" x="425.0826666666666" y="418.18733333333336" type="priority" /><node id="V0012" x="314.45133333333337" y="199.13066666666666" type="priority" /><node id="V0013" x="995.6333333333333" y="852.2800000000001" type="priority" /><node id="V0014" x="718.5866666666666" y="269.242" type="priority" /><node id="V0015" x="725.1466666666668" y="549.9346666666667" type="priority" /><node id="V0016" x="490.83799999999997" y="312.05266666666665" type="priority" /><node id="V0017" x="995.7866666666666" y="849.3866666666667" type="priority" /><node id="V0018" x="458.28266666666667" y="509.61466666666666" type="priority" /><node id="V0019" x="353.8226666666667" y="221.94666666666666" type="priority" /><node id="V0020" x="877.6800000000001" y="244.3046666666667" type="priority" /><node id="V0021" x="996.2533333333333" y="840.3333333333334" type="priority" /><node id="V0022" x="581.3846666666667" y="395.9386666666667" type="priority" /><node id="V0023" x="722.8133333333334" y="554.62" type="priority" /><node id="V0024" x="467.87399999999997" y="288.04" type="priority" /><node id="V0025" x="996.2466666666667" y="840.5400000000001" type="priority" /><node id="V0026" x="575.902" y="401.0013333333334" type="priority" /></nodes>