<nodes><node id="V0001" x="310.3933333333333" y="879.3833333333333" type="priority" /><node id="V0002" x="479.58833333333337" y="1293.1333333333334" type="priority" /><node id="V0003" x="619.6475" y="380.22" type="priority" /><node id="V0004" x="403.3733333333333" y="170.29333333333332" type="priority" /><node id="V0005" x="723.94" y="1053.0916666666667" type="priority" /><node id="V0006" x="1231.5666666666666" y="1315.4666666666667" type="priority" /><node id="V0007" x="1285.5249999999999" y="275.84666666666664" type="priority" /><node id="V0008" x="30.315083333333334" y="38.6975" type="priority" /><node id="V0009" x="1256.0583333333334" y="1061.925" type="priority" /><node id="V0010" x="1238.2416666666666" y="22.58366666666667" type="priority" /><node id="V0011" x="531.3533333333334" y="522.7341666666667" type="priority" /><node id="V0012" x="393.0641666666667" y="248.91333333333333" type="priority" /><node id="V0013" x="1244.5416666666667" y="1065.3500000000001" type="priority" /><node id="V0014" x="898.2333333333332" y="336.5525" type="priority" /><node id="V0015" x="906.4333333333334" y="687.4183333333334" type="priority" /><node id="V0016" x="613.5475" y="390.06583333333333" type="priority" /><node id="V0017" x="1244.7333333333333" y="1061.7333333333333" type="priority" /><node id="V0018" x="572.8533333333334" y="637.0183333333333" type="priority" /><node id="V0019" x="442.27833333333336" y="277.43333333333334" type="priority" /><node id="V0020" x="1097.1000000000001" y="305.3808333333333" type="priority" /><node id="V0021" x="1245.3166666666666" y="1050.4166666666667" type="priority" /><node id="V0022" x="726.7308333333334" y="494.92333333333335" type="priority" /><node id="V0023" x="903.5166666666668" y="693.275" type="priority" /><node id="V0024" x="584.8425" y="360.05" type="priority" /><node id="V0025" x="1245.3083333333334" y="1050.675" type="priority" /><node id="V0026" x="719.8775" y="501.2516666666667" type="priority" /></nodes>