<configuration><input><net-file value="5.net.xml" /><route-files value="5.rou.xml" /></input><time><begin value="0" /></time></configuration>