<?xml version="1.0" encoding="UTF-8"?>

<!-- generated on 2023-06-27 19:03:53 by Eclipse SUMO netconvert Version 1.16.0
<configuration xmlns:xsi="http://www.w3.org/2001/XMLSchema-instance" xsi:noNamespaceSchemaLocation="http://sumo.dlr.de/xsd/netconvertConfiguration.xsd">

    <input>
        <node-files value="data/simulationConfigurations/optimized\optimized.nod.xml"/>
        <edge-files value="data/simulationConfigurations/optimized\optimized.edg.xml"/>
    </input>

    <output>
        <output-file value="data/simulationConfigurations/optimized\optimized.net.xml"/>
    </output>

</configuration>
-->

<net version="1.16" junctionCornerDetail="5" limitTurnSpeed="5.50" xmlns:xsi="http://www.w3.org/2001/XMLSchema-instance" xsi:noNamespaceSchemaLocation="http://sumo.dlr.de/xsd/net_file.xsd">

    <location netOffset="-30.32,-22.58" convBoundary="0.00,0.00,1255.21,1292.88" origBoundary="30.32,22.58,1285.52,1315.47" projParameter="!"/>

    <edge id=":V0001_0" function="internal">
        <lane id=":V0001_0_0" index="0" speed="12.49" length="26.22" shape="304.83,844.83 297.15,852.23 291.88,858.03 289.01,862.23 288.55,864.83"/>
        <lane id=":V0001_0_1" index="1" speed="13.15" length="29.14" shape="302.09,843.01 294.00,850.96 288.56,857.45 285.75,862.48 285.58,866.04"/>
    </edge>
    <edge id=":V0001_2" function="internal">
        <lane id=":V0001_2_0" index="0" speed="8.53" length="27.18" shape="299.35,841.18 292.91,844.36 286.95,843.03 282.82,838.16 281.88,830.72"/>
    </edge>
    <edge id=":V0001_3" function="internal">
        <lane id=":V0001_3_0" index="0" speed="5.87" length="14.26" shape="299.35,841.18 295.29,842.87 292.58,842.53 291.23,840.16 291.23,835.76"/>
    </edge>
    <edge id=":V0002_0" function="internal">
        <lane id=":V0002_0_0" index="0" speed="9.35" length="38.67" shape="454.16,1277.44 467.29,1272.78 471.41,1269.29 466.53,1266.98 452.64,1265.85"/>
    </edge>
    <edge id=":V0002_1" function="internal">
        <lane id=":V0002_1_0" index="0" speed="9.53" length="24.06" shape="454.16,1277.44 449.45,1277.18 446.40,1273.55 444.60,1267.31 443.70,1259.25"/>
        <lane id=":V0002_1_1" index="1" speed="8.50" length="18.86" shape="453.74,1274.23 451.17,1273.88 449.16,1271.15 447.73,1266.03 446.85,1258.51"/>
    </edge>
    <edge id=":V0002_3" function="internal">
        <lane id=":V0002_3_0" index="0" speed="6.88" length="18.66" shape="453.74,1274.23 449.70,1273.76 448.40,1270.19 449.50,1265.20 452.68,1260.48"/>
        <lane id=":V0002_3_1" index="1" speed="6.22" length="14.93" shape="453.32,1271.02 449.76,1271.59 448.84,1270.40 450.56,1267.46 454.92,1262.76"/>
    </edge>
    <edge id=":V0002_5" function="internal">
        <lane id=":V0002_5_0" index="0" speed="6.72" length="18.98" shape="449.30,1257.95 446.39,1251.76 444.49,1249.92 443.59,1252.41 443.70,1259.25"/>
    </edge>
    <edge id=":V0002_6" function="internal">
        <lane id=":V0002_6_0" index="0" speed="4.56" length="5.06" shape="449.30,1257.95 450.16,1259.67 451.00,1260.66 451.84,1260.93 452.68,1260.48"/>
        <lane id=":V0002_6_1" index="1" speed="6.62" length="12.19" shape="446.15,1258.68 448.08,1262.33 450.19,1264.23 452.47,1264.37 454.92,1262.76"/>
    </edge>
    <edge id=":V0002_8" function="internal">
        <lane id=":V0002_8_0" index="0" speed="9.13" length="12.80" shape="446.15,1258.68 448.16,1263.19 449.98,1266.43 451.62,1268.38 453.06,1269.06"/>
    </edge>
    <edge id=":V0003_0" function="internal">
        <lane id=":V0003_0_0" index="0" speed="17.50" length="21.95" shape="598.81,370.13 595.73,367.41 591.63,364.62 586.56,361.57 580.53,358.08"/>
    </edge>
    <edge id=":V0003_1" function="internal">
        <lane id=":V0003_1_0" index="0" speed="13.50" length="23.07" shape="603.29,363.55 596.08,364.16 590.82,363.37 586.11,361.31 580.53,358.08"/>
        <lane id=":V0003_1_1" index="1" speed="13.50" length="23.07" shape="602.80,360.38 596.35,360.99 591.77,360.35 587.54,358.45 582.14,355.32"/>
    </edge>
    <edge id=":V0003_3" function="internal">
        <lane id=":V0003_3_0" index="0" speed="11.90" length="19.65" shape="600.77,352.87 595.31,355.51 590.39,356.79 586.00,356.73 582.14,355.32"/>
    </edge>
    <edge id=":V0003_4" function="internal">
        <lane id=":V0003_4_0" index="0" speed="3.65" length="2.34" shape="583.74,352.55 584.38,353.84 584.32,354.73"/>
    </edge>
    <edge id=":V0003_6" function="internal">
        <lane id=":V0003_6_0" index="0" speed="3.65" length="2.34" shape="584.32,354.73 583.58,355.22 582.14,355.32"/>
    </edge>
    <edge id=":V0003_5" function="internal">
        <lane id=":V0003_5_0" index="0" speed="5.31" length="5.79" shape="585.22,361.23 584.83,360.45 583.40,359.53 581.70,358.67 580.53,358.08"/>
    </edge>
    <edge id=":V0004_0" function="internal">
        <lane id=":V0004_0_0" index="0" speed="11.08" length="47.04" shape="370.89,186.62 370.17,169.61 370.80,154.70 373.58,145.91 379.29,147.28"/>
        <lane id=":V0004_0_1" index="1" speed="10.14" length="39.05" shape="374.08,186.40 373.26,171.27 373.19,158.35 374.29,150.24 376.98,149.49"/>
    </edge>
    <edge id=":V0004_2" function="internal">
        <lane id=":V0004_2_0" index="0" speed="10.84" length="50.70" shape="378.28,185.52 373.31,168.96 370.56,153.15 371.92,143.97 379.29,147.28"/>
        <lane id=":V0004_2_1" index="1" speed="10.11" length="43.82" shape="381.28,184.42 376.21,169.56 372.41,155.65 371.96,147.40 376.98,149.49"/>
    </edge>
    <edge id=":V0004_4" function="internal">
        <lane id=":V0004_4_0" index="0" speed="17.50" length="12.69" shape="367.80,140.76 371.58,142.04 374.17,143.06 376.45,144.56 379.29,147.28"/>
        <lane id=":V0004_4_1" index="1" speed="17.50" length="12.69" shape="366.73,143.78 370.10,144.90 372.41,145.78 374.45,147.09 376.98,149.49"/>
    </edge>
    <edge id=":V0004_6" function="internal">
        <lane id=":V0004_6_0" index="0" speed="10.91" length="41.41" shape="366.73,183.70 369.06,168.22 371.91,155.30 375.31,147.47 379.29,147.28"/>
    </edge>
    <edge id=":V0005_0" function="internal">
        <lane id=":V0005_0_0" index="0" speed="10.29" length="17.43" shape="703.26,1032.27 696.95,1031.87 692.18,1030.89 688.98,1029.35 687.33,1027.24"/>
    </edge>
    <edge id=":V0005_1" function="internal">
        <lane id=":V0005_1_0" index="0" speed="7.72" length="15.70" shape="700.44,1027.61 696.80,1033.23 693.41,1035.04 690.25,1033.04 689.61,1031.77"/>
        <lane id=":V0005_1_1" index="1" speed="5.90" length="11.45" shape="697.57,1026.18 695.55,1029.32 693.67,1030.36 691.94,1029.30 690.34,1026.14"/>
    </edge>
    <edge id=":V0005_5" function="internal">
        <lane id=":V0005_5_0" index="0" speed="7.72" length="5.07" shape="689.61,1031.77 687.33,1027.24"/>
    </edge>
    <edge id=":V0005_3" function="internal">
        <lane id=":V0005_3_0" index="0" speed="6.67" length="6.43" shape="682.98,1034.23 684.03,1032.92 684.60,1031.50 684.70,1029.97 684.32,1028.33"/>
        <lane id=":V0005_3_1" index="1" speed="8.21" length="10.10" shape="685.23,1036.52 686.87,1034.45 687.77,1032.21 687.92,1029.81 687.33,1027.24"/>
    </edge>
    <edge id=":V0006_0" function="internal">
        <lane id=":V0006_0_0" index="0" speed="6.51" length="8.89" shape="1191.23,1287.78 1193.64,1287.51 1195.40,1286.54 1196.52,1284.86 1196.98,1282.48"/>
        <lane id=":V0006_0_1" index="1" speed="7.33" length="11.54" shape="1191.23,1287.78 1195.04,1287.56 1197.80,1286.63 1199.52,1284.99 1200.18,1282.65"/>
    </edge>
    <edge id=":V0006_2" function="internal">
        <lane id=":V0006_2_0" index="0" speed="6.70" length="9.16" shape="1191.23,1287.78 1193.74,1287.52 1195.62,1286.55 1196.85,1284.88 1197.43,1282.50"/>
        <lane id=":V0006_2_1" index="1" speed="8.20" length="14.19" shape="1191.13,1290.98 1194.98,1290.56 1197.84,1289.03 1199.73,1286.40 1200.63,1282.67"/>
    </edge>
    <edge id=":V0007_0" function="internal">
        <lane id=":V0007_0_0" index="0" speed="6.10" length="9.06" shape="1249.80,264.88 1249.57,262.33 1248.56,260.64 1246.77,259.81 1244.21,259.85"/>
        <lane id=":V0007_0_1" index="1" speed="7.68" length="15.04" shape="1253.00,265.05 1252.61,260.81 1250.93,258.01 1247.97,256.63 1243.71,256.68"/>
    </edge>
    <edge id=":V0007_2" function="internal">
        <lane id=":V0007_2_0" index="0" speed="15.00" length="15.56" shape="1253.00,265.05 1253.28,260.05 1253.44,256.23 1253.35,252.94 1252.89,249.53"/>
    </edge>
    <edge id=":V0008_0" function="internal">
        <lane id=":V0008_0_0" index="0" speed="11.85" length="57.90" shape="59.47,52.43 44.06,41.35 32.35,28.78 29.11,18.43 39.06,13.99"/>
    </edge>
    <edge id=":V0008_1" function="internal">
        <lane id=":V0008_1_0" index="0" speed="8.11" length="28.97" shape="59.47,52.43 69.44,25.23"/>
        <lane id=":V0008_1_1" index="1" speed="8.96" length="35.85" shape="59.47,52.43 53.72,45.14 54.20,36.38 59.62,29.62 68.66,28.33"/>
        <lane id=":V0008_1_2" index="2" speed="8.42" length="31.44" shape="59.47,52.43 54.48,46.06 55.03,38.43 59.90,32.54 67.89,31.44"/>
    </edge>
    <edge id=":V0008_4" function="internal">
        <lane id=":V0008_4_0" index="0" speed="7.24" length="23.49" shape="59.47,52.43 55.43,46.40 55.11,41.92 58.51,38.97 65.62,37.56"/>
    </edge>
    <edge id=":V0009_0" function="internal">
        <lane id=":V0009_0_0" index="0" speed="9.38" length="27.06" shape="1223.05,1024.94 1226.74,1031.13 1226.01,1036.63 1221.62,1041.15 1214.30,1044.41"/>
    </edge>
    <edge id=":V0009_1" function="internal">
        <lane id=":V0009_1_0" index="0" speed="8.20" length="23.88" shape="1220.73,1027.14 1224.02,1032.86 1223.74,1038.33 1220.27,1042.41 1214.01,1043.94"/>
        <lane id=":V0009_1_1" index="1" speed="7.53" length="19.87" shape="1218.40,1029.34 1222.28,1034.43 1222.79,1038.02 1219.92,1040.13 1213.68,1040.74"/>
    </edge>
    <edge id=":V0009_3" function="internal">
        <lane id=":V0009_3_0" index="0" speed="3.61" length="4.50" shape="1218.40,1029.34 1218.80,1030.67 1218.60,1031.51 1217.82,1031.86 1216.43,1031.71"/>
    </edge>
    <edge id=":V0009_4" function="internal">
        <lane id=":V0009_4_0" index="0" speed="5.64" length="8.45" shape="1219.67,1052.32 1219.61,1049.64 1218.83,1047.94 1217.33,1047.24 1215.11,1047.51"/>
    </edge>
    <edge id=":V0009_5" function="internal">
        <lane id=":V0009_5_0" index="0" speed="7.12" length="11.68" shape="1219.67,1052.32 1219.61,1048.70 1218.65,1046.09 1216.78,1044.51 1214.01,1043.94"/>
        <lane id=":V0009_5_1" index="1" speed="8.57" length="17.43" shape="1222.85,1052.63 1222.70,1047.49 1221.12,1043.80 1218.11,1041.55 1213.68,1040.74"/>
    </edge>
    <edge id=":V0009_7" function="internal">
        <lane id=":V0009_7_0" index="0" speed="11.00" length="20.21" shape="1222.85,1052.63 1222.31,1050.01 1220.28,1046.38 1216.76,1041.74 1211.76,1036.08"/>
        <lane id=":V0009_7_1" index="1" speed="11.00" length="21.25" shape="1222.85,1052.63 1222.61,1048.28 1221.07,1043.71 1218.23,1038.91 1214.10,1033.90"/>
        <lane id=":V0009_7_2" index="2" speed="11.00" length="22.55" shape="1222.85,1052.63 1222.91,1046.55 1221.86,1041.04 1219.70,1036.09 1216.43,1031.71"/>
    </edge>
    <edge id=":V0010_0" function="internal">
        <lane id=":V0010_0_0" index="0" speed="6.68" length="16.35" shape="1208.84,13.60 1207.65,10.80 1205.70,11.00 1202.99,14.22 1199.51,20.45"/>
    </edge>
    <edge id=":V0010_1" function="internal">
        <lane id=":V0010_1_0" index="0" speed="7.26" length="16.43" shape="1208.84,13.60 1207.55,11.33 1204.96,11.25 1201.05,13.37 1195.84,17.70"/>
    </edge>
    <edge id=":V0010_2" function="internal">
        <lane id=":V0010_2_0" index="0" speed="8.43" length="19.98" shape="1208.84,13.60 1207.07,9.25 1203.83,7.28 1199.13,7.70 1192.96,10.50"/>
    </edge>
    <edge id=":V0010_3" function="internal">
        <lane id=":V0010_3_0" index="0" speed="8.97" length="24.68" shape="1203.35,-1.54 1206.05,0.30 1205.75,5.26 1203.29,12.32 1199.51,20.45"/>
    </edge>
    <edge id=":V0010_4" function="internal">
        <lane id=":V0010_4_0" index="0" speed="7.95" length="22.99" shape="1203.35,-1.54 1206.02,0.03 1204.22,4.12 1199.55,9.60 1193.67,15.35"/>
    </edge>
    <edge id=":V0010_5" function="internal">
        <lane id=":V0010_5_0" index="0" speed="7.29" length="20.97" shape="1203.35,-1.54 1206.53,-0.33 1204.34,2.78 1199.05,6.74 1192.96,10.50"/>
    </edge>
    <edge id=":V0011_0" function="internal">
        <lane id=":V0011_0_0" index="0" speed="14.50" length="18.96" shape="498.91,508.36 497.27,502.36 496.67,497.49 496.35,493.39 495.56,489.75"/>
    </edge>
    <edge id=":V0011_1" function="internal">
        <lane id=":V0011_1_0" index="0" speed="10.42" length="12.14" shape="501.92,507.26 500.93,503.79 500.62,500.68 500.99,497.92 502.03,495.51"/>
    </edge>
    <edge id=":V0011_2" function="internal">
        <lane id=":V0011_2_0" index="0" speed="12.04" length="16.38" shape="488.92,504.51 492.17,499.01 494.36,494.72 495.49,491.63 495.56,489.75"/>
    </edge>
    <edge id=":V0011_3" function="internal">
        <lane id=":V0011_3_0" index="0" speed="23.50" length="14.98" shape="491.64,506.20 494.55,502.46 497.32,500.08 499.85,498.09 502.03,495.51"/>
    </edge>
    <edge id=":V0012_0" function="internal">
        <lane id=":V0012_0_0" index="0" speed="7.00" length="14.65" shape="364.51,236.59 361.27,233.57 359.87,230.21 358.82,227.06 356.64,224.64"/>
    </edge>
    <edge id=":V0012_1" function="internal">
        <lane id=":V0012_1_0" index="0" speed="9.18" length="13.27" shape="366.11,233.83 363.76,231.89 362.24,229.30 361.54,226.06 361.68,222.16"/>
    </edge>
    <edge id=":V0012_2" function="internal">
        <lane id=":V0012_2_0" index="0" speed="7.00" length="15.40" shape="359.46,239.08 359.87,233.71 359.54,229.52 358.46,226.49 356.64,224.64"/>
    </edge>
    <edge id=":V0012_3" function="internal">
        <lane id=":V0012_3_0" index="0" speed="10.00" length="17.07" shape="359.46,239.08 361.68,222.16"/>
    </edge>
    <edge id=":V0013_0" function="internal">
        <lane id=":V0013_0_0" index="0" speed="17.00" length="13.89" shape="1214.91,1047.57 1211.17,1049.21 1208.91,1051.03 1206.65,1052.85 1202.90,1054.49"/>
        <lane id=":V0013_0_1" index="1" speed="17.00" length="13.89" shape="1214.11,1044.47 1210.33,1046.12 1208.05,1047.94 1205.76,1049.77 1201.99,1051.42"/>
        <lane id=":V0013_0_2" index="2" speed="17.00" length="13.89" shape="1214.11,1044.47 1201.07,1048.35"/>
    </edge>
    <edge id=":V0013_3" function="internal">
        <lane id=":V0013_3_0" index="0" speed="3.28" length="1.92" shape="1214.11,1044.47 1213.54,1044.63 1213.03,1044.70 1212.67,1044.58 1212.55,1044.17"/>
    </edge>
    <edge id=":V0013_4" function="internal">
        <lane id=":V0013_4_0" index="0" speed="5.90" length="9.11" shape="1208.58,1058.96 1208.35,1056.33 1207.32,1054.71 1205.51,1054.10 1202.90,1054.49"/>
        <lane id=":V0013_4_1" index="1" speed="7.53" length="15.69" shape="1211.78,1059.12 1211.37,1054.60 1209.61,1051.80 1206.48,1050.75 1201.99,1051.42"/>
    </edge>
    <edge id=":V0013_6" function="internal">
        <lane id=":V0013_6_0" index="0" speed="13.00" length="14.97" shape="1211.78,1059.12 1212.55,1044.17"/>
    </edge>
    <edge id=":V0014_0" function="internal">
        <lane id=":V0014_0_0" index="0" speed="7.93" length="17.03" shape="869.74,328.69 867.61,326.34 864.54,326.09 860.52,327.95 855.56,331.91"/>
        <lane id=":V0014_0_1" index="1" speed="9.18" length="23.25" shape="872.62,327.29 869.47,323.43 865.21,322.52 859.85,324.56 853.39,329.56"/>
    </edge>
    <edge id=":V0014_2" function="internal">
        <lane id=":V0014_2_0" index="0" speed="11.30" length="22.68" shape="872.62,327.29 870.26,325.05 865.88,323.88 859.47,323.76 851.04,324.71"/>
    </edge>
    <edge id=":V0014_3" function="internal">
        <lane id=":V0014_3_0" index="0" speed="21.00" length="32.01" shape="884.47,319.47 874.74,321.44 867.21,324.02 861.09,327.43 855.56,331.91"/>
        <lane id=":V0014_3_1" index="1" speed="21.00" length="33.85" shape="883.98,316.31 873.98,318.41 865.88,321.26 859.19,324.96 853.39,329.56"/>
    </edge>
    <edge id=":V0014_5" function="internal">
        <lane id=":V0014_5_0" index="0" speed="19.50" length="34.15" shape="883.48,313.15 874.24,315.61 867.26,318.93 860.28,322.25 851.04,324.71"/>
        <lane id=":V0014_5_1" index="1" speed="19.50" length="34.15" shape="883.48,313.15 874.17,315.12 867.01,317.35 859.86,319.58 850.55,321.55"/>
        <lane id=":V0014_5_2" index="2" speed="19.50" length="34.15" shape="883.48,313.15 850.05,318.39"/>
    </edge>
    <edge id=":V0014_8" function="internal">
        <lane id=":V0014_8_0" index="0" speed="23.50" length="34.81" shape="881.13,308.30 855.56,331.91"/>
        <lane id=":V0014_8_1" index="1" speed="23.50" length="34.81" shape="878.96,305.95 853.39,329.56"/>
    </edge>
    <edge id=":V0014_10" function="internal">
        <lane id=":V0014_10_0" index="0" speed="22.00" length="32.01" shape="878.96,305.95 873.43,310.43 867.31,313.84 859.79,316.42 850.05,318.39"/>
    </edge>
    <edge id=":V0015_0" function="internal">
        <lane id=":V0015_0_0" index="0" speed="5.42" length="7.56" shape="883.97,680.27 880.78,673.42"/>
    </edge>
    <edge id=":V0015_1" function="internal">
        <lane id=":V0015_1_0" index="0" speed="13.00" length="20.64" shape="886.30,678.09 872.22,663.00"/>
    </edge>
    <edge id=":V0015_2" function="internal">
        <lane id=":V0015_2_0" index="0" speed="16.00" length="9.60" shape="882.20,663.40 877.92,671.99"/>
        <lane id=":V0015_2_1" index="1" speed="16.00" length="9.60" shape="879.34,661.97 875.05,670.56"/>
    </edge>
    <edge id=":V0015_4" function="internal">
        <lane id=":V0015_4_0" index="0" speed="5.87" length="9.11" shape="879.34,661.97 877.84,664.15 876.15,665.05 874.28,664.67 872.22,663.00"/>
    </edge>
    <edge id=":V0016_0" function="internal">
        <lane id=":V0016_0_0" index="0" speed="5.07" length="6.07" shape="580.51,357.69 581.45,358.69 582.87,360.14 584.27,361.28 585.12,361.40"/>
    </edge>
    <edge id=":V0016_1" function="internal">
        <lane id=":V0016_1_0" index="0" speed="17.00" length="9.33" shape="580.20,369.34 585.12,361.40"/>
    </edge>
    <edge id=":V0017_0" function="internal">
        <lane id=":V0017_0_0" index="0" speed="20.50" length="13.55" shape="1213.81,1043.94 1209.64,1043.37 1206.65,1042.22 1203.98,1041.08 1200.79,1040.52"/>
    </edge>
    <edge id=":V0017_1" function="internal">
        <lane id=":V0017_1_0" index="0" speed="6.03" length="7.81" shape="1213.48,1040.73 1211.77,1040.34 1210.59,1039.24 1209.95,1037.43 1209.83,1034.91"/>
        <lane id=":V0017_1_1" index="1" speed="5.31" length="5.82" shape="1213.48,1040.73 1212.98,1039.98 1212.86,1038.27 1212.94,1036.38 1213.03,1035.07"/>
    </edge>
    <edge id=":V0017_3" function="internal">
        <lane id=":V0017_3_0" index="0" speed="7.58" length="12.99" shape="1212.56,1043.97 1211.89,1042.54 1209.70,1041.48 1206.00,1040.81 1200.79,1040.52"/>
    </edge>
    <edge id=":V0017_4" function="internal">
        <lane id=":V0017_4_0" index="0" speed="11.50" length="10.02" shape="1212.56,1043.97 1211.71,1041.19 1209.59,1039.54 1207.48,1037.79 1206.64,1034.74"/>
        <lane id=":V0017_4_1" index="1" speed="11.50" length="10.02" shape="1212.56,1043.97 1212.21,1041.23 1211.20,1039.44 1210.19,1037.65 1209.83,1034.91"/>
        <lane id=":V0017_4_2" index="2" speed="11.50" length="10.02" shape="1212.56,1043.97 1213.03,1035.07"/>
    </edge>
    <edge id=":V0018_0" function="internal">
        <lane id=":V0018_0_0" index="0" speed="5.82" length="9.14" shape="541.31,634.50 540.06,632.13 538.50,631.07 536.61,631.30 534.42,632.82"/>
        <lane id=":V0018_0_1" index="1" speed="7.48" length="16.00" shape="544.32,633.40 542.13,629.27 539.39,627.40 536.09,627.80 532.25,630.47"/>
    </edge>
    <edge id=":V0018_2" function="internal">
        <lane id=":V0018_2_0" index="0" speed="17.00" length="22.59" shape="547.33,632.31 544.51,626.02 541.82,621.84 539.22,617.91 536.66,612.31"/>
        <lane id=":V0018_2_1" index="1" speed="17.00" length="22.59" shape="547.33,632.31 539.67,611.22"/>
    </edge>
    <edge id=":V0018_4" function="internal">
        <lane id=":V0018_4_0" index="0" speed="21.00" length="22.57" shape="546.56,612.90 543.95,615.99 541.15,620.07 537.48,624.96 532.25,630.47"/>
        <lane id=":V0018_4_1" index="1" speed="21.00" length="22.57" shape="546.56,612.90 530.08,628.12"/>
    </edge>
    <edge id=":V0018_6" function="internal">
        <lane id=":V0018_6_0" index="0" speed="5.82" length="9.14" shape="546.56,612.90 544.37,614.42 542.49,614.65 540.92,613.58 539.67,611.22"/>
    </edge>
    <edge id=":V0019_0" function="internal">
        <lane id=":V0019_0_0" index="0" speed="6.00" length="25.43" shape="414.77,267.27 412.29,264.02 407.68,261.00 401.36,257.67 393.72,253.52"/>
    </edge>
    <edge id=":V0019_1" function="internal">
        <lane id=":V0019_1_0" index="0" speed="10.00" length="25.98" shape="414.77,267.27 412.38,263.61 408.44,259.22 403.98,253.38 400.02,245.40"/>
        <lane id=":V0019_1_1" index="1" speed="10.00" length="25.98" shape="414.77,267.27 412.83,263.40 409.91,258.57 406.48,252.35 403.03,244.31"/>
        <lane id=":V0019_1_2" index="2" speed="10.00" length="25.98" shape="414.77,267.27 406.04,243.21"/>
    </edge>
    <edge id=":V0019_4" function="internal">
        <lane id=":V0019_4_0" index="0" speed="11.00" length="25.59" shape="417.47,263.59 395.32,250.75"/>
        <lane id=":V0019_4_1" index="1" speed="11.00" length="25.59" shape="419.07,260.82 396.93,247.99"/>
    </edge>
    <edge id=":V0019_6" function="internal">
        <lane id=":V0019_6_0" index="0" speed="15.00" length="23.80" shape="419.07,260.82 413.47,257.64 409.28,254.74 405.97,250.74 403.03,244.31"/>
        <lane id=":V0019_6_1" index="1" speed="15.00" length="22.63" shape="419.07,260.82 413.91,257.40 410.71,254.00 408.43,249.60 406.04,243.21"/>
    </edge>
    <edge id=":V0020_0" function="internal">
        <lane id=":V0020_0_0" index="0" speed="10.77" length="14.02" shape="1073.45,286.61 1071.61,287.49 1069.57,289.56 1067.34,292.84 1064.90,297.33"/>
    </edge>
    <edge id=":V0020_1" function="internal">
        <lane id=":V0020_1_0" index="0" speed="20.50" length="15.18" shape="1073.45,286.61 1069.11,287.80 1066.34,289.34 1063.57,290.89 1059.24,292.08"/>
        <lane id=":V0020_1_1" index="1" speed="20.50" length="15.18" shape="1072.95,283.45 1068.62,284.64 1065.85,286.18 1063.08,287.73 1058.74,288.92"/>
        <lane id=":V0020_1_2" index="2" speed="20.50" length="15.18" shape="1072.95,283.45 1058.25,285.76"/>
    </edge>
    <edge id=":V0020_4" function="internal">
        <lane id=":V0020_4_0" index="0" speed="23.00" length="25.74" shape="1073.53,272.87 1062.03,295.90"/>
    </edge>
    <edge id=":V0020_5" function="internal">
        <lane id=":V0020_5_0" index="0" speed="13.55" length="22.49" shape="1073.53,272.87 1069.82,279.46 1066.11,284.33 1062.42,287.48 1058.74,288.92"/>
    </edge>
    <edge id=":V0020_6" function="internal">
        <lane id=":V0020_6_0" index="0" speed="9.40" length="23.32" shape="1066.72,274.54 1068.62,276.81 1068.07,281.56 1065.68,288.13 1062.03,295.90"/>
    </edge>
    <edge id=":V0020_7" function="internal">
        <lane id=":V0020_7_0" index="0" speed="6.69" length="18.19" shape="1065.95,277.64 1068.90,280.00 1067.80,283.52 1063.98,286.92 1058.74,288.92"/>
        <lane id=":V0020_7_1" index="1" speed="6.14" length="15.03" shape="1065.17,280.74 1068.36,281.96 1068.27,283.20 1064.89,284.47 1058.25,285.76"/>
    </edge>
    <edge id=":V0021_0" function="internal">
        <lane id=":V0021_0_0" index="0" speed="10.50" length="27.61" shape="1211.62,1035.93 1206.15,1029.34 1202.64,1023.97 1199.60,1019.11 1195.52,1013.99"/>
        <lane id=":V0021_0_1" index="1" speed="10.50" length="27.61" shape="1211.62,1035.93 1206.43,1028.91 1203.74,1022.81 1201.55,1017.24 1197.85,1011.81"/>
    </edge>
    <edge id=":V0021_2" function="internal">
        <lane id=":V0021_2_0" index="0" speed="10.95" length="27.57" shape="1213.96,1033.75 1208.59,1027.05 1205.55,1021.37 1203.45,1015.88 1200.87,1009.74"/>
    </edge>
    <edge id=":V0021_3" function="internal">
        <lane id=":V0021_3_0" index="0" speed="13.88" length="18.53" shape="1216.30,1031.57 1213.72,1028.09 1211.96,1024.07 1211.02,1019.49 1210.89,1014.36"/>
    </edge>
    <edge id=":V0021_4" function="internal">
        <lane id=":V0021_4_0" index="0" speed="13.98" length="18.12" shape="1207.04,1026.43 1206.55,1021.39 1204.76,1018.25 1201.81,1015.54 1197.85,1011.81"/>
    </edge>
    <edge id=":V0021_5" function="internal">
        <lane id=":V0021_5_0" index="0" speed="18.95" length="18.72" shape="1207.04,1026.43 1207.22,1020.89 1207.01,1017.04 1206.00,1013.36 1203.75,1008.34"/>
    </edge>
    <edge id=":V0021_6" function="internal">
        <lane id=":V0021_6_0" index="0" speed="22.00" length="12.16" shape="1210.24,1026.53 1210.89,1014.36"/>
        <lane id=":V0021_6_1" index="1" speed="22.00" length="12.16" shape="1213.44,1026.64 1214.09,1014.52"/>
    </edge>
    <edge id=":V0022_0" function="internal">
        <lane id=":V0022_0_0" index="0" speed="5.83" length="7.01" shape="702.33,481.02 700.53,479.36 698.93,478.45 697.55,478.30 696.37,478.92"/>
    </edge>
    <edge id=":V0022_1" function="internal">
        <lane id=":V0022_1_0" index="0" speed="19.50" length="14.37" shape="702.33,481.02 692.52,470.51"/>
    </edge>
    <edge id=":V0022_2" function="internal">
        <lane id=":V0022_2_0" index="0" speed="19.50" length="8.51" shape="702.62,473.14 696.37,478.92"/>
        <lane id=":V0022_2_1" index="1" speed="19.50" length="8.51" shape="700.45,470.79 694.20,476.57"/>
    </edge>
    <edge id=":V0022_4" function="internal">
        <lane id=":V0022_4_0" index="0" speed="6.52" length="9.04" shape="700.45,470.79 698.41,472.20 696.41,472.62 694.44,472.06 692.52,470.51"/>
    </edge>
    <edge id=":V0023_0" function="internal">
        <lane id=":V0023_0_0" index="0" speed="5.82" length="5.15" shape="880.69,673.60 885.63,672.11"/>
        <lane id=":V0023_0_1" index="1" speed="6.17" length="5.89" shape="877.83,672.17 883.31,674.32"/>
    </edge>
    <edge id=":V0023_2" function="internal">
        <lane id=":V0023_2_0" index="0" speed="8.50" length="6.38" shape="874.96,670.74 874.59,672.62 875.09,674.08 875.59,675.53 875.21,677.41"/>
        <lane id=":V0023_2_1" index="1" speed="8.50" length="6.38" shape="874.96,670.74 872.35,675.98"/>
    </edge>
    <edge id=":V0023_4" function="internal">
        <lane id=":V0023_4_0" index="0" speed="12.50" length="14.31" shape="871.62,666.72 874.54,668.32 877.97,668.74 881.74,669.49 885.63,672.11"/>
        <lane id=":V0023_4_1" index="1" speed="12.50" length="14.31" shape="871.62,666.72 874.23,668.72 876.95,669.99 879.94,671.51 883.31,674.32"/>
        <lane id=":V0023_4_2" index="2" speed="12.50" length="14.31" shape="871.62,666.72 881.00,676.53"/>
    </edge>
    <edge id=":V0023_7" function="internal">
        <lane id=":V0023_7_0" index="0" speed="7.00" length="9.95" shape="871.62,666.72 872.98,668.68 873.56,670.87 873.35,673.31 872.35,675.98"/>
    </edge>
    <edge id=":V0024_0" function="internal">
        <lane id=":V0024_0_0" index="0" speed="4.76" length="8.64" shape="555.33,343.48 559.93,336.17"/>
        <lane id=":V0024_0_1" index="1" speed="4.58" length="7.85" shape="557.03,340.77 559.51,342.05 560.53,342.18 560.08,341.15 558.17,338.96"/>
    </edge>
    <edge id=":V0024_2" function="internal">
        <lane id=":V0024_2_0" index="0" speed="13.00" length="8.20" shape="557.03,340.77 554.70,339.99 552.85,340.20 551.01,340.40 548.68,339.62"/>
        <lane id=":V0024_2_1" index="1" speed="13.00" length="8.20" shape="557.03,340.77 550.31,336.87"/>
    </edge>
    <edge id=":V0024_4" function="internal">
        <lane id=":V0024_4_0" index="0" speed="3.65" length="1.44" shape="557.03,340.77 556.44,339.45"/>
    </edge>
    <edge id=":V0024_9" function="internal">
        <lane id=":V0024_9_0" index="0" speed="3.65" length="3.23" shape="556.44,339.45 556.53,338.56 557.30,338.10 558.74,338.06"/>
    </edge>
    <edge id=":V0024_5" function="internal">
        <lane id=":V0024_5_0" index="0" speed="11.95" length="9.26" shape="554.26,330.24 555.72,332.52 556.20,334.52 556.83,336.34 558.74,338.06"/>
    </edge>
    <edge id=":V0024_6" function="internal">
        <lane id=":V0024_6_0" index="0" speed="15.50" length="8.16" shape="554.26,330.24 559.93,336.17"/>
        <lane id=":V0024_6_1" index="1" speed="15.50" length="8.16" shape="552.56,333.09 558.17,338.96"/>
    </edge>
    <edge id=":V0024_8" function="internal">
        <lane id=":V0024_8_0" index="0" speed="4.24" length="3.02" shape="552.56,333.09 553.41,334.88 553.34,335.91"/>
    </edge>
    <edge id=":V0024_10" function="internal">
        <lane id=":V0024_10_0" index="0" speed="4.24" length="3.41" shape="553.34,335.91 553.32,336.11 552.29,336.77 550.31,336.87"/>
    </edge>
    <edge id=":V0025_0" function="internal">
        <lane id=":V0025_0_0" index="0" speed="6.94" length="16.60" shape="1208.89,1010.14 1207.04,1026.63"/>
        <lane id=":V0025_0_1" index="1" speed="6.60" length="14.84" shape="1206.58,1012.35 1210.23,1026.73"/>
    </edge>
    <edge id=":V0025_2" function="internal">
        <lane id=":V0025_2_0" index="0" speed="17.50" length="20.81" shape="1204.27,1014.56 1209.25,1018.32 1213.59,1019.68 1217.93,1021.04 1222.91,1024.80"/>
        <lane id=":V0025_2_1" index="1" speed="17.50" length="20.81" shape="1204.27,1014.56 1208.81,1018.59 1212.43,1020.78 1216.04,1022.97 1220.59,1027.00"/>
        <lane id=":V0025_2_2" index="2" speed="17.50" length="20.81" shape="1204.27,1014.56 1218.26,1029.19"/>
    </edge>
    <edge id=":V0025_5" function="internal">