<configuration><input><net-file value="sim_8.net.xml" /><route-files value="sim_8.rou.xml" /></input><time><begin value="0" /></time></configuration>