<?xml version="1.0" encoding="UTF-8"?>

<!-- generated on 2023-06-06 23:42:01 by Eclipse SUMO netconvert Version 1.16.0
<configuration xmlns:xsi="http://www.w3.org/2001/XMLSchema-instance" xsi:noNamespaceSchemaLocation="http://sumo.dlr.de/xsd/netconvertConfiguration.xsd">

    <input>
        <node-files value="data/simulationConfigurations/tmp/sim_8\sim_8.nod.xml"/>
        <edge-files value="data/simulationConfigurations/tmp/sim_8\sim_8.edg.xml"/>
    </input>

    <output>
        <output-file value="data/simulationConfigurations/tmp/sim_8\sim_8.net.xml"/>
    </output>

</configuration>
-->

<net version="1.16" junctionCornerDetail="5" limitTurnSpeed="5.50" xmlns:xsi="http://www.w3.org/2001/XMLSchema-instance" xsi:noNamespaceSchemaLocation="http://sumo.dlr.de/xsd/net_file.xsd">

    <location netOffset="0.00,0.00" convBoundary="0.00,0.00,500.00,500.00" origBoundary="0.00,0.00,500.00,500.00" projParameter="!"/>

    <edge id=":0_0" function="internal">
        <lane id=":0_0_0" index="0" speed="3.65" length="4.67" shape="0.00,301.60 -1.20,300.80 -1.60,300.00 -1.20,299.20 0.00,298.40"/>
    </edge>
    <edge id=":1_0" function="internal">
        <lane id=":1_0_0" index="0" speed="6.08" length="7.74" shape="98.40,103.20 98.70,101.10 99.60,99.60 101.10,98.70 103.20,98.40"/>
    </edge>
    <edge id=":1_1" function="internal">
        <lane id=":1_1_0" index="0" speed="3.90" length="2.58" shape="103.20,101.60 102.50,101.70 102.00,102.00 101.70,102.50 101.60,103.20"/>
    </edge>
    <edge id=":10_0" function="internal">
        <lane id=":10_0_0" index="0" speed="6.51" length="9.03" shape="298.40,107.20 298.05,104.75 297.00,103.00 295.25,101.95 292.80,101.60"/>
    </edge>
    <edge id=":10_1" function="internal">
        <lane id=":10_1_0" index="0" speed="8.00" length="14.19" shape="298.40,107.20 298.95,103.35 300.60,100.60 303.35,98.95 307.20,98.40"/>
    </edge>
    <edge id=":10_2" function="internal">
        <lane id=":10_2_0" index="0" speed="3.65" length="4.67" shape="298.40,107.20 299.20,106.00 300.00,105.60 300.80,106.00 301.60,107.20"/>
    </edge>
    <edge id=":10_3" function="internal">
        <lane id=":10_3_0" index="0" speed="6.51" length="9.03" shape="307.20,101.60 304.75,101.95 303.00,103.00 301.95,104.75 301.60,107.20"/>
    </edge>
    <edge id=":10_4" function="internal">
        <lane id=":10_4_0" index="0" speed="13.90" length="14.40" shape="307.20,101.60 292.80,101.60"/>
    </edge>
    <edge id=":10_5" function="internal">
        <lane id=":10_5_0" index="0" speed="3.65" length="1.44" shape="307.20,101.60 306.00,100.80"/>
    </edge>
    <edge id=":10_9" function="internal">
        <lane id=":10_9_0" index="0" speed="3.65" length="3.23" shape="306.00,100.80 305.60,100.00 306.00,99.20 307.20,98.40"/>
    </edge>
    <edge id=":10_6" function="internal">
        <lane id=":10_6_0" index="0" speed="13.90" length="14.40" shape="292.80,98.40 307.20,98.40"/>
    </edge>
    <edge id=":10_7" function="internal">
        <lane id=":10_7_0" index="0" speed="8.00" length="4.07" shape="292.80,98.40 296.65,98.95 296.80,99.04"/>
    </edge>
    <edge id=":10_8" function="internal">
        <lane id=":10_8_0" index="0" speed="3.65" length="1.44" shape="292.80,98.40 294.00,99.20"/>
    </edge>
    <edge id=":10_10" function="internal">
        <lane id=":10_10_0" index="0" speed="8.00" length="10.13" shape="296.80,99.04 299.40,100.60 301.05,103.35 301.60,107.20"/>
    </edge>
    <edge id=":10_11" function="internal">
        <lane id=":10_11_0" index="0" speed="3.65" length="3.23" shape="294.00,99.20 294.40,100.00 294.00,100.80 292.80,101.60"/>
    </edge>
    <edge id=":11_0" function="internal">
        <lane id=":11_0_0" index="0" speed="6.51" length="9.03" shape="298.40,207.20 298.05,204.75 297.00,203.00 295.25,201.95 292.80,201.60"/>
    </edge>
    <edge id=":11_1" function="internal">
        <lane id=":11_1_0" index="0" speed="13.90" length="14.40" shape="298.40,207.20 298.40,192.80"/>
    </edge>
    <edge id=":11_2" function="internal">
        <lane id=":11_2_0" index="0" speed="8.00" length="4.07" shape="298.40,207.20 298.95,203.35 299.04,203.20"/>
    </edge>
    <edge id=":11_3" function="internal">
        <lane id=":11_3_0" index="0" speed="3.65" length="1.44" shape="298.40,207.20 299.20,206.00"/>
    </edge>
    <edge id=":11_16" function="internal">
        <lane id=":11_16_0" index="0" speed="8.00" length="10.13" shape="299.04,203.20 300.60,200.60 303.35,198.95 307.20,198.40"/>
    </edge>
    <edge id=":11_17" function="internal">
        <lane id=":11_17_0" index="0" speed="3.65" length="3.23" shape="299.20,206.00 300.00,205.60 300.80,206.00 301.60,207.20"/>
    </edge>
    <edge id=":11_4" function="internal">
        <lane id=":11_4_0" index="0" speed="6.51" length="9.03" shape="307.20,201.60 304.75,201.95 303.00,203.00 301.95,204.75 301.60,207.20"/>
    </edge>
    <edge id=":11_5" function="internal">
        <lane id=":11_5_0" index="0" speed="13.90" length="14.40" shape="307.20,201.60 292.80,201.60"/>
    </edge>
    <edge id=":11_6" function="internal">
        <lane id=":11_6_0" index="0" speed="8.00" length="14.19" shape="307.20,201.60 303.35,201.05 300.60,199.40 298.95,196.65 298.40,192.80"/>
    </edge>
    <edge id=":11_7" function="internal">
        <lane id=":11_7_0" index="0" speed="3.65" length="4.67" shape="307.20,201.60 306.00,200.80 305.60,200.00 306.00,199.20 307.20,198.40"/>
    </edge>
    <edge id=":11_8" function="internal">
        <lane id=":11_8_0" index="0" speed="6.51" length="9.03" shape="301.60,192.80 301.95,195.25 303.00,197.00 304.75,198.05 307.20,198.40"/>
    </edge>
    <edge id=":11_9" function="internal">
        <lane id=":11_9_0" index="0" speed="13.90" length="14.40" shape="301.60,192.80 301.60,207.20"/>
    </edge>
    <edge id=":11_10" function="internal">
        <lane id=":11_10_0" index="0" speed="8.00" length="4.07" shape="301.60,192.80 301.05,196.65 300.96,196.80"/>
    </edge>
    <edge id=":11_11" function="internal">
        <lane id=":11_11_0" index="0" speed="3.65" length="1.44" shape="301.60,192.80 300.80,194.00"/>
    </edge>
    <edge id=":11_18" function="internal">
        <lane id=":11_18_0" index="0" speed="8.00" length="10.13" shape="300.96,196.80 299.40,199.40 296.65,201.05 292.80,201.60"/>
    </edge>
    <edge id=":11_19" function="internal">
        <lane id=":11_19_0" index="0" speed="3.65" length="3.23" shape="300.80,194.00 300.00,194.40 299.20,194.00 298.40,192.80"/>
    </edge>
    <edge id=":11_12" function="internal">
        <lane id=":11_12_0" index="0" speed="6.51" length="9.03" shape="292.80,198.40 295.25,198.05 297.00,197.00 298.05,195.25 298.40,192.80"/>
    </edge>
    <edge id=":11_13" function="internal">
        <lane id=":11_13_0" index="0" speed="13.90" length="14.40" shape="292.80,198.40 307.20,198.40"/>
    </edge>
    <edge id=":11_14" function="internal">
        <lane id=":11_14_0" index="0" speed="8.00" length="14.19" shape="292.80,198.40 296.65,198.95 299.40,200.60 301.05,203.35 301.60,207.20"/>
    </edge>
    <edge id=":11_15" function="internal">
        <lane id=":11_15_0" index="0" speed="3.65" length="4.67" shape="292.80,198.40 294.00,199.20 294.40,200.00 294.00,200.80 292.80,201.60"/>
    </edge>
    <edge id=":12_0" function="internal">
        <lane id=":12_0_0" index="0" speed="6.51" length="9.03" shape="298.40,307.20 298.05,304.75 297.00,303.00 295.25,301.95 292.80,301.60"/>
    </edge>
    <edge id=":12_1" function="internal">
        <lane id=":12_1_0" index="0" speed="13.90" length="14.40" shape="298.40,307.20 298.40,292.80"/>
    </edge>
    <edge id=":12_2" function="internal">
        <lane id=":12_2_0" index="0" speed="8.00" length="4.07" shape="298.40,307.20 298.95,303.35 299.04,303.20"/>
    </edge>
    <edge id=":12_3" function="internal">
        <lane id=":12_3_0" index="0" speed="3.65" length="1.44" shape="298.40,307.20 299.20,306.00"/>
    </edge>
    <edge id=":12_16" function="internal">
        <lane id=":12_16_0" index="0" speed="8.00" length="10.13" shape="299.04,303.20 300.60,300.60 303.35,298.95 307.20,298.40"/>
    </edge>
    <edge id=":12_17" function="internal">
        <lane id=":12_17_0" index="0" speed="3.65" length="3.23" shape="299.20,306.00 300.00,305.60 300.80,306.00 301.60,307.20"/>
    </edge>
    <edge id=":12_4" function="internal">
        <lane id=":12_4_0" index="0" speed="6.51" length="9.03" shape="307.20,301.60 304.75,301.95 303.00,303.00 301.95,304.75 301.60,307.20"/>
    </edge>
    <edge id=":12_5" function="internal">
        <lane id=":12_5_0" index="0" speed="13.90" length="14.40" shape="307.20,301.60 292.80,301.60"/>
    </edge>
    <edge id=":12_6" function="internal">
        <lane id=":12_6_0" index="0" speed="8.00" length="14.19" shape="307.20,301.60 303.35,301.05 300.60,299.40 298.95,296.65 298.40,292.80"/>
    </edge>
    <edge id=":12_7" function="internal">
        <lane id=":12_7_0" index="0" speed="3.65" length="4.67" shape="307.20,301.60 306.00,300.80 305.60,300.00 306.00,299.20 307.20,298.40"/>
    </edge>
    <edge id=":12_8" function="internal">
        <lane id=":12_8_0" index="0" speed="6.51" length="9.03" shape="301.60,292.80 301.95,295.25 303.00,297.00 304.75,298.05 307.20,298.40"/>
    </edge>
    <edge id=":12_9" function="internal">
        <lane id=":12_9_0" index="0" speed="13.90" length="14.40" shape="301.60,292.80 301.60,307.20"/>
    </edge>
    <edge id=":12_10" function="internal">
        <lane id=":12_10_0" index="0" speed="8.00" length="4.07" shape="301.60,292.80 301.05,296.65 300.96,296.80"/>
    </edge>
    <edge id=":12_11" function="internal">
        <lane id=":12_11_0" index="0" speed="3.65" length="1.44" shape="301.60,292.80 300.80,294.00"/>
    </edge>
    <edge id=":12_18" function="internal">
        <lane id=":12_18_0" index="0" speed="8.00" length="10.13" shape="300.96,296.80 299.40,299.40 296.65,301.05 292.80,301.60"/>
    </edge>
    <edge id=":12_19" function="internal">
        <lane id=":12_19_0" index="0" speed="3.65" length="3.23" shape="300.80,294.00 300.00,294.40 299.20,294.00 298.40,292.80"/>
    </edge>
    <edge id=":12_12" function="internal">
        <lane id=":12_12_0" index="0" speed="6.51" length="9.03" shape="292.80,298.40 295.25,298.05 297.00,297.00 298.05,295.25 298.40,292.80"/>
    </edge>
    <edge id=":12_13" function="internal">
        <lane id=":12_13_0" index="0" speed="13.90" length="14.40" shape="292.80,298.40 307.20,298.40"/>
    </edge>
    <edge id=":12_14" function="internal">
        <lane id=":12_14_0" index="0" speed="8.00" length="14.19" shape="292.80,298.40 296.65,298.95 299.40,300.60 301.05,303.35 301.60,307.20"/>
    </edge>
    <edge id=":12_15" function="internal">
        <lane id=":12_15_0" index="0" speed="3.65" length="4.67" shape="292.80,298.40 294.00,299.20 294.40,300.00 294.00,300.80 292.80,301.60"/>
    </edge>
    <edge id=":13_0" function="internal">
        <lane id=":13_0_0" index="0" speed="6.51" length="9.03" shape="298.40,407.20 298.05,404.75 297.00,403.00 295.25,401.95 292.80,401.60"/>
    </edge>
    <edge id=":13_1" function="internal">
        <lane id=":13_1_0" index="0" speed="13.90" length="24.76" shape="298.40,407.20 298.40,382.44"/>
    </edge>
    <edge id=":13_2" function="internal">
        <lane id=":13_2_0" index="0" speed="8.00" length="4.07" shape="298.40,407.20 298.95,403.35 299.04,403.20"/>
    </edge>
    <edge id=":13_3" function="internal">
        <lane id=":13_3_0" index="0" speed="3.65" length="1.44" shape="298.40,407.20 299.20,406.00"/>
    </edge>
    <edge id=":13_20" function="internal">
        <lane id=":13_20_0" index="0" speed="8.00" length="10.13" shape="299.04,403.20 300.60,400.60 303.35,398.95 307.20,398.40"/>
    </edge>
    <edge id=":13_21" function="internal">
        <lane id=":13_21_0" index="0" speed="3.65" length="3.23" shape="299.20,406.00 300.00,405.60 300.80,406.00 301.60,407.20"/>
    </edge>
    <edge id=":13_4" function="internal">
        <lane id=":13_4_0" index="0" speed="6.51" length="9.03" shape="307.20,401.60 304.75,401.95 303.00,403.00 301.95,404.75 301.60,407.20"/>
    </edge>
    <edge id=":13_5" function="internal">
        <lane id=":13_5_0" index="0" speed="13.90" length="14.40" shape="307.20,401.60 292.80,401.60"/>
    </edge>
    <edge id=":13_6" function="internal">
        <lane id=":13_6_0" index="0" speed="10.09" length="23.16" shape="307.20,401.60 303.35,400.40 300.60,396.81 298.95,390.83 298.40,382.44"/>
    </edge>
    <edge id=":13_7" function="internal">
        <lane id=":13_7_0" index="0" speed="3.65" length="4.67" shape="307.20,401.60 306.00,400.80 305.60,400.00 306.00,399.20 307.20,398.40"/>
    </edge>
    <edge id=":13_8" function="internal">
        <lane id=":13_8_0" index="0" speed="8.99" length="18.20" shape="301.60,382.44 301.95,389.43 303.00,394.41 304.75,397.40 307.20,398.40"/>
    </edge>
    <edge id=":13_9" function="internal">
        <lane id=":13_9_0" index="0" speed="13.90" length="24.76" shape="301.60,382.44 301.60,407.20"/>
    </edge>
    <edge id=":13_10" function="internal">
        <lane id=":13_10_0" index="0" speed="10.09" length="8.90" shape="301.60,382.44 301.05,390.83 300.92,391.31"/>
    </edge>
    <edge id=":13_11" function="internal">
        <lane id=":13_11_0" index="0" speed="3.65" length="1.44" shape="301.60,382.44 300.80,383.64"/>
    </edge>
    <edge id=":13_22" function="internal">
        <lane id=":13_22_0" index="0" speed="10.09" length="14.26" shape="300.92,391.31 299.40,396.81 296.65,400.40 292.80,401.60"/>
    </edge>
    <edge id=":13_23" function="internal">
        <lane id=":13_23_0" index="0" speed="3.65" length="3.23" shape="300.80,383.64 300.00,384.04 299.20,383.64 298.40,382.44"/>
    </edge>
    <edge id=":13_12" function="internal">
        <lane id=":13_12_0" index="0" speed="5.60" length="11.85" shape="293.58,383.58 295.69,387.13 297.20,388.12 298.10,386.56 298.40,382.44"/>
    </edge>
    <edge id=":13_13" function="internal">
        <lane id=":13_13_0" index="0" speed="8.45" length="20.87" shape="293.58,383.58 297.21,390.07 300.69,394.70 304.02,397.47 307.20,398.40"/>
    </edge>
    <edge id=":13_14" function="internal">
        <lane id=":13_14_0" index="0" speed="8.45" length="25.03" shape="293.58,383.58 295.78,388.46 298.43,395.19 300.66,402.03 301.60,407.20"/>
    </edge>
    <edge id=":13_15" function="internal">
        <lane id=":13_15_0" index="0" speed="8.45" length="21.83" shape="293.58,383.58 296.50,390.18 297.93,395.95 296.99,400.04 292.80,401.60"/>
    </edge>
    <edge id=":13_16" function="internal">
        <lane id=":13_16_0" index="0" speed="8.99" length="18.20" shape="292.80,398.40 295.25,397.40 297.00,394.41 298.05,389.43 298.40,382.44"/>
    </edge>
    <edge id=":13_17" function="internal">
        <lane id=":13_17_0" index="0" speed="13.90" length="14.40" shape="292.80,398.40 307.20,398.40"/>
    </edge>
    <edge id=":13_18" function="internal">
        <lane id=":13_18_0" index="0" speed="8.00" length="14.19" shape="292.80,398.40 296.65,398.95 299.40,400.60 301.05,403.35 301.60,407.20"/>
    </edge>
    <edge id=":13_19" function="internal">
        <lane id=":13_19_0" index="0" speed="3.65" length="4.67" shape="292.80,398.40 294.00,399.20 294.40,400.00 294.00,400.80 292.80,401.60"/>
    </edge>
    <edge id=":14_0" function="internal">
        <lane id=":14_0_0" index="0" speed="3.65" length="4.67" shape="301.60,500.00 300.80,501.20 300.00,501.60 299.20,501.20 298.40,500.00"/>
    </edge>
    <edge id=":15_0" function="internal">
        <lane id=":15_0_0" index="0" speed="3.90" length="2.58" shape="398.40,103.20 398.30,102.50 398.00,102.00 397.50,101.70 396.80,101.60"/>
    </edge>
    <edge id=":15_1" function="internal">
        <lane id=":15_1_0" index="0" speed="6.08" length="7.74" shape="396.80,98.40 398.90,98.70 400.40,99.60 401.30,101.10 401.60,103.20"/>
    </edge>
    <edge id=":16_0" function="internal">
        <lane id=":16_0_0" index="0" speed="6.51" length="9.03" shape="398.40,207.20 398.05,204.75 397.00,203.00 395.25,201.95 392.80,201.60"/>
    </edge>
    <edge id=":16_1" function="internal">
        <lane id=":16_1_0" index="0" speed="13.90" length="14.40" shape="398.40,207.20 398.40,192.80"/>
    </edge>
    <edge id=":16_2" function="internal">
        <lane id=":16_2_0" index="0" speed="8.00" length="4.07" shape="398.40,207.20 398.95,203.35 399.04,203.20"/>
    </edge>
    <edge id=":16_3" function="internal">
        <lane id=":16_3_0" index="0" speed="3.65" length="1.44" shape="398.40,207.20 399.20,206.00"/>
    </edge>
    <edge id=":16_16" function="internal">
        <lane id=":16_16_0" index="0" speed="8.00" length="10.13" shape="399.04,203.20 400.60,200.60 403.35,198.95 407.20,198.40"/>
    </edge>
    <edge id=":16_17" function="internal">
        <lane id=":16_17_0" index="0" speed="3.65" length="3.23" shape="399.20,206.00 400.00,205.60 400.80,206.00 401.60,207.20"/>
    </edge>
    <edge id=":16_4" function="internal">
        <lane id=":16_4_0" index="0" speed="6.51" length="9.03" shape="407.20,201.60 404.75,201.95 403.00,203.00 401.95,204.75 401.60,207.20"/>
    </edge>
    <edge id=":16_5" function="internal">
        <lane id=":16_5_0" index="0" speed="13.90" length="14.40" shape="407.20,201.60 392.80,201.60"/>
    </edge>
    <edge id=":16_6" function="internal">
        <lane id=":16_6_0" index="0" speed="8.00" length="14.19" shape="407.20,201.60 403.35,201.05 400.60,199.40 398.95,196.65 398.40,192.80"/>
    </edge>
    <edge id=":16_7" function="internal">
        <lane id=":16_7_0" index="0" speed="3.65" length="4.67" shape="407.20,201.60 406.00,200.80 405.60,200.00 406.00,199.20 407.20,198.40"/>
    </edge>
    <edge id=":16_8" function="internal">
        <lane id=":16_8_0" index="0" speed="6.51" length="9.03" shape="401.60,192.80 401.95,195.25 403.00,197.00 404.75,198.05 407.20,198.40"/>
    </edge>
    <edge id=":16_9" function="internal">
        <lane id=":16_9_0" index="0" speed="13.90" length="14.40" shape="401.60,192.80 401.60,207.20"/>
    </edge>
    <edge id=":16_10" function="internal">
        <lane id=":16_10_0" index="0" speed="8.00" length="4.07" shape="401.60,192.80 401.05,196.65 400.96,196.80"/>
    </edge>
    <edge id=":16_11" function="internal">
        <lane id=":16_11_0" index="0" speed="3.65" length="1.44" shape="401.60,192.80 400.80,194.00"/>
    </edge>
    <edge id=":16_18" function="internal">
        <lane id=":16_18_0" index="0" speed="8.00" length="10.13" shape="400.96,196.80 399.40,199.40 396.65,201.05 392.80,201.60"/>
    </edge>
    <edge id=":16_19" function="internal">
        <lane id=":16_19_0" index="0" speed="3.65" length="3.23" shape="400.80,194.00 400.00,194.40 399.20,194.00 398.40,192.80"/>
    </edge>
    <edge id=":16_12" function="internal">
        <lane id=":16_12_0" index="0" speed="6.51" length="9.03" shape="392.80,198.40 395.25,198.05 397.00,197.00 398.05,195.25 398.40,192.80"/>
    </edge>
    <edge id=":16_13" function="internal">
        <lane id=":16_13_0" index="0" speed="13.90" length="14.40" shape="392.80,198.40 407.20,198.40"/>
    </edge>
    <edge id=":16_14" function="internal">
        <lane id=":16_14_0" index="0" speed="8.00" length="14.19" shape="392.80,198.40 396.65,198.95 399.40,200.60 401.05,203.35 401.60,207.20"/>
    </edge>
    <edge id=":16_15" function="internal">
        <lane id=":16_15_0" index="0" speed="3.65" length="4.67" shape="392.80,198.40 394.00,199.20 394.40,200.00 394.00,200.80 392.80,201.60"/>
    </edge>
    <edge id=":17_0" function="internal">
        <lane id=":17_0_0" index="0" speed="6.51" length="9.03" shape="398.40,307.20 398.05,304.75 397.00,303.00 395.25,301.95 392.80,301.60"/>
    </edge>
    <edge id=":17_1" function="internal">
        <lane id=":17_1_0" index="0" speed="13.90" length="14.40" shape="398.40,307.20 398.40,292.80"/>
    </edge>
    <edge id=":17_2" function="internal">
        <lane id=":17_2_0" index="0" speed="3.65" length="1.44" shape="398.40,307.20 399.20,306.00"/>
    </edge>
    <edge id=":17_9" function="internal">
        <lane id=":17_9_0" index="0" speed="3.65" length="3.23" shape="399.20,306.00 400.00,305.60 400.80,306.00 401.60,307.20"/>
    </edge>
    <edge id=":17_3" function="internal">
        <lane id=":17_3_0" index="0" speed="13.90" length="14.40" shape="401.60,292.80 401.60,307.20"/>
    </edge>
    <edge id=":17_4" function="internal">
        <lane id=":17_4_0" index="0" speed="8.00" length="4.07" shape="401.60,292.80 401.05,296.65 400.96,296.80"/>
    </edge>
    <edge id=":17_5" function="internal">
        <lane id=":17_5_0" index="0" speed="3.65" length="1.44" shape="401.60,292.80 400.80,294.00"/>
    </edge>
    <edge id=":17_10" function="internal">
        <lane id=":17_10_0" index="0" speed="8.00" length="10.13" shape="400.96,296.80 399.40,299.40 396.65,301.05 392.80,301.60"/>
    </edge>
    <edge id=":17_11" function="internal">
        <lane id=":17_11_0" index="0" speed="3.65" length="3.23" shape="400.80,294.00 400.00,294.40 399.20,294.00 398.40,292.80"/>
    </edge>
    <edge id=":17_6" function="internal">
        <lane id=":17_6_0" index="0" speed="6.51" length="9.03" shape="392.80,298.40 395.25,298.05 397.00,297.00 398.05,295.25 398.40,292.80"/>
    </edge>
    <edge id=":17_7" function="internal">
        <lane id=":17_7_0" index="0" speed="8.00" length="14.19" shape="392.80,298.40 396.65,298.95 399.40,300.60 401.05,303.35 401.60,307.20"/>
    </edge>
    <edge id=":17_8" function="internal">
        <lane id=":17_8_0" index="0" speed="3.65" length="4.67" shape="392.80,298.40 394.00,299.20 394.40,300.00 394.00,300.80 392.80,301.60"/>
    </edge>
    <edge id=":18_0" function="internal">
        <lane id=":18_0_0" index="0" speed="6.08" length="7.74" shape="401.60,396.80 401.30,398.90 400.40,400.40 398.90,401.30 396.80,401.60"/>
    </edge>
    <edge id=":18_1" function="internal">
        <lane id=":18_1_0" index="0" speed="3.90" length="2.58" shape="396.80,398.40 397.50,398.30 398.00,398.00 398.30,397.50 398.40,396.80"/>
    </edge>
    <edge id=":19_0" function="internal">
        <lane id=":19_0_0" index="0" speed="3.65" length="4.67" shape="500.00,198.40 501.20,199.20 501.60,200.00 501.20,200.80 500.00,201.60"/>
    </edge>
    <edge id=":2_0" function="internal">
        <lane id=":2_0_0" index="0" speed="13.90" length="14.40" shape="98.40,207.20 98.40,192.80"/>
    </edge>
    <edge id=":2_1" function="internal">
        <lane id=":2_1_0" index="0" speed="8.00" length="4.07" shape="98.40,207.20 98.95,203.35 99.04,203.20"/>
    </edge>
    <edge id=":2_2" function="internal">
        <lane id=":2_2_0" index="0" speed="3.65" length="1.44" shape="98.40,207.20 99.20,206.00"/>
    </edge>
    <edge id=":2_9" function="internal">
        <lane id=":2_9_0" index="0" speed="8.00" length="10.13" shape="99.04,203.20 100.60,200.60 103.35,198.95 107.20,198.40"/>
    </edge>
    <edge id=":2_10" function="internal">
        <lane id=":2_10_0" index="0" speed="3.65" length="3.23" shape="99.20,206.00 100.00,205.60 100.80,206.00 101.60,207.20"/>
    </edge>
    <edge id=":2_3" function="internal">
        <lane id=":2_3_0" index="0" speed="6.51" length="9.03" shape="107.20,201.60 104.75,201.95 103.00,203.00 101.95,204.75 101.60,207.20"/>
    </edge>
    <edge id=":2_4" function="internal">
        <lane id=":2_4_0" index="0" speed="8.00" length="14.19" shape="107.20,201.60 103.35,201.05 100.60,199.40 98.95,196.65 98.40,192.80"/>
    </edge>
    <edge id=":2_5" function="internal">
        <lane id=":2_5_0" index="0" speed="3.65" length="4.67" shape="107.20,201.60 106.00,200.80 105.60,200.00 106.00,199.20 107.20,198.40"/>
    </edge>
    <edge id=":2_6" function="internal">
        <lane id=":2_6_0" index="0" speed="6.51" length="9.03" shape="101.60,192.80 101.95,195.25 103.00,197.00 104.75,198.05 107.20,198.40"/>
    </edge>
    <edge id=":2_7" function="internal">
        <lane id=":2_7_0" index="0" speed="13.90" length="14.40" shape="101.60,192.80 101.60,207.20"/>
    </edge>
    <edge id=":2_8" function="internal">
        <lane id=":2_8_0" index="0" speed="3.65" length="1.44" shape="101.60,192.80 100.80,194.00"/>
    </edge>
    <edge id=":2_11" function="internal">
        <lane id=":2_11_0" index="0" speed="3.65" length="3.23" shape="100.80,194.00 100.00,194.40 99.20,194.00 98.40,192.80"/>
    </edge>
    <edge id=":3_0" function="internal">
        <lane id=":3_0_0" index="0" speed="6.51" length="9.03" shape="98.40,307.20 98.05,304.75 97.00,303.00 95.25,301.95 92.80,301.60"/>
    </edge>
    <edge id=":3_1" function="internal">
        <lane id=":3_1_0" index="0" speed="13.90" length="14.40" shape="98.40,307.20 98.40,292.80"/>
    </edge>
    <edge id=":3_2" function="internal">
        <lane id=":3_2_0" index="0" speed="8.00" length="4.07" shape="98.40,307.20 98.95,303.35 99.04,303.20"/>
    </edge>
    <edge id=":3_3" function="internal">
        <lane id=":3_3_0" index="0" speed="3.65" length="1.44" shape="98.40,307.20 99.20,306.00"/>
    </edge>
    <edge id=":3_16" function="internal">
        <lane id=":3_16_0" index="0" speed="8.00" length="10.13" shape="99.04,303.20 100.60,300.60 103.35,298.95 107.20,298.40"/>
    </edge>
    <edge id=":3_17" function="internal">
        <lane id=":3_17_0" index="0" speed="3.65" length="3.23" shape="99.20,306.00 100.00,305.60 100.80,306.00 101.60,307.20"/>
    </edge>
    <edge id=":3_4" function="internal">
        <lane id=":3_4_0" index="0" speed="6.51" length="9.03" shape="107.20,301.60 104.75,301.95 103.00,303.00 101.95,304.75 101.60,307.20"/>
    </edge>
    <edge id=":3_5" function="internal">
        <lane id=":3_5_0" index="0" speed="13.90" length="14.40" shape="107.20,301.60 92.80,301.60"/>
    </edge>
    <edge id=":3_6" function="internal">
        <lane id=":3_6_0" index="0" speed="8.00" length="14.19" shape="107.20,301.60 103.35,301.05 100.60,299.40 98.95,296.65 98.40,292.80"/>
    </edge>
    <edge id=":3_7" function="internal">
        <lane id=":3_7_0" index="0" speed="3.65" length="4.67" shape="107.20,301.60 106.00,300.80 105.60,300.00 106.00,299.20 107.20,298.40"/>
    </edge>
    <edge id=":3_8" function="internal">
        <lane id=":3_8_0" index="0" speed="6.51" length="9.03" shape="101.60,292.80 101.95,295.25 103.00,297.00 104.75,298.05 107.20,298.40"/>
    </edge>
    <edge id=":3_9" function="internal">
        <lane id=":3_9_0" index="0" speed="13.90" length="14.40" shape="101.60,292.80 101.60,307.20"/>
    </edge>
    <edge id=":3_10" function="internal">
        <lane id=":3_10_0" index="0" speed="8.00" length="4.07" shape="101.60,292.80 101.05,296.65 100.96,296.80"/>
    </edge>
    <edge id=":3_11" function="internal">
        <lane id=":3_11_0" index="0" speed="3.65" length="1.44" shape="101.60,292.80 100.80,294.00"/>
    </edge>
    <edge id=":3_18" function="internal">
        <lane id=":3_18_0" index="0" speed="8.00" length="10.13" shape="100.96,296.80 99.40,299.40 96.65,301.05 92.80,301.60"/>
    </edge>
    <edge id=":3_19" function="internal">
        <lane id=":3_19_0" index="0" speed="3.65" length="3.23" shape="100.80,294.00 100.00,294.40 99.20,294.00 98.40,292.80"/>
    </edge>
    <edge id=":3_12" function="internal">
        <lane id=":3_12_0" index="0" speed="6.51" length="9.03" shape="92.80,298.40 95.25,298.05 97.00,297.00 98.05,295.25 98.40,292.80"/>
    </edge>
    <edge id=":3_13" function="internal">
        <lane id=":3_13_0" index="0" speed="13.90" length="14.40" shape="92.80,298.40 107.20,298.40"/>
    </edge>
    <edge id=":3_14" function="internal">
        <lane id=":3_14_0" index="0" speed="8.00" length="14.19" shape="92.80,298.40 96.65,298.95 99.40,300.60 101.05,303.35 101.60,307.20"/>
    </edge>
    <edge id=":3_15" function="internal">
        <lane id=":3_15_0" index="0" speed="3.65" length="4.67" shape="92.80,298.40 94.00,299.20 94.40,300.00 94.00,300.80 92.80,301.60"/>
    </edge>
    <edge id=":4_0" function="internal">
        <lane id=":4_0_0" index="0" speed="6.08" length="7.74" shape="103.20,401.60 101.10,401.30 99.60,400.40 98.70,398.90 98.40,396.80"/>
    </edge>
    <edge id=":4_1" function="internal">
        <lane id=":4_1_0" index="0" speed="3.90" length="2.58" shape="101.60,396.80 101.70,397.50 102.00,398.00 102.50,398.30 103.20,398.40"/>
    </edge>
    <edge id=":5_0" function="internal">
        <lane id=":5_0_0" index="0" speed="3.65" length="4.67" shape="198.40,0.00 199.20,-1.20 200.00,-1.60 200.80,-1.20 201.60,0.00"/>
    </edge>
    <edge id=":6_0" function="internal">
        <lane id=":6_0_0" index="0" speed="6.51" length="9.03" shape="198.40,107.20 198.05,104.75 197.00,103.00 195.25,101.95 192.80,101.60"/>
    </edge>
    <edge id=":6_1" function="internal">
        <lane id=":6_1_0" index="0" speed="13.90" length="14.40" shape="198.40,107.20 198.40,92.80"/>
    </edge>
    <edge id=":6_2" function="internal">
        <lane id=":6_2_0" index="0" speed="8.00" length="4.07" shape="198.40,107.20 198.95,103.35 199.04,103.20"/>
    </edge>
    <edge id=":6_3" function="internal">
        <lane id=":6_3_0" index="0" speed="3.65" length="1.44" shape="198.40,107.20 199.20,106.00"/>
    </edge>
    <edge id=":6_16" function="internal">
        <lane id=":6_16_0" index="0" speed="8.00" length="10.13" shape="199.04,103.20 200.60,100.60 203.35,98.95 207.20,98.40"/>
    </edge>
    <edge id=":6_17" function="internal">
        <lane id=":6_17_0" index="0" speed="3.65" length="3.23" shape="199.20,106.00 200.00,105.60 200.80,106.00 201.60,107.20"/>
    </edge>
    <edge id=":6_4" function="internal">
        <lane id=":6_4_0" index="0" speed="6.51" length="9.03" shape="207.20,101.60 204.75,101.95 203.00,103.00 201.95,104.75 201.60,107.20"/>
    </edge>
    <edge id=":6_5" function="internal">
        <lane id=":6_5_0" index="0" speed="13.90" length="14.40" shape="207.20,101.60 192.80,101.60"/>
    </edge>
    <edge id=":6_6" function="internal">