<?xml version="1.0" encoding="UTF-8"?>

<!-- generated on 2023-06-15 17:10:23 by Eclipse SUMO netconvert Version 1.16.0
<configuration xmlns:xsi="http://www.w3.org/2001/XMLSchema-instance" xsi:noNamespaceSchemaLocation="http://sumo.dlr.de/xsd/netconvertConfiguration.xsd">

    <input>
        <node-files value="data/simulationConfigurations/tmp/sim_8\sim_8.nod.xml"/>
        <edge-files value="data/simulationConfigurations/tmp/sim_8\sim_8.edg.xml"/>
    </input>

    <output>
        <output-file value="data/simulationConfigurations/tmp/sim_8\sim_8.net.xml"/>
    </output>

</configuration>
-->

<net version="1.16" junctionCornerDetail="5" limitTurnSpeed="5.50" xmlns:xsi="http://www.w3.org/2001/XMLSchema-instance" xsi:noNamespaceSchemaLocation="http://sumo.dlr.de/xsd/net_file.xsd">

    <location netOffset="0.00,0.00" convBoundary="0.00,0.00,500.00,400.00" origBoundary="0.00,0.00,500.00,400.00" projParameter="!"/>

    <edge id=":0_0" function="internal">
        <lane id=":0_0_0" index="0" speed="3.65" length="4.67" shape="0.00,301.60 -1.20,300.80 -1.60,300.00 -1.20,299.20 0.00,298.40"/>
    </edge>
    <edge id=":1_0" function="internal">
        <lane id=":1_0_0" index="0" speed="11.89" length="32.62" shape="95.20,116.80 96.15,105.95 99.00,98.20 103.75,93.55 110.40,92.00"/>
        <lane id=":1_0_1" index="1" speed="10.96" length="27.54" shape="98.40,116.80 99.15,107.35 101.40,100.60 105.15,96.55 110.40,95.20"/>
        <lane id=":1_0_2" index="2" speed="10.41" length="24.73" shape="98.40,116.80 99.15,108.75 101.40,103.00 105.15,99.55 110.40,98.40"/>
    </edge>
    <edge id=":1_3" function="internal">
        <lane id=":1_3_0" index="0" speed="6.51" length="9.03" shape="110.40,111.20 107.95,111.55 106.20,112.60 105.15,114.35 104.80,116.80"/>
        <lane id=":1_3_1" index="1" speed="8.00" length="14.19" shape="110.40,108.00 106.55,108.55 103.80,110.20 102.15,112.95 101.60,116.80"/>
    </edge>
    <edge id=":10_0" function="internal">
        <lane id=":10_0_0" index="0" speed="8.45" length="15.94" shape="295.20,121.51 294.85,115.60 293.80,111.38 292.05,108.84 289.60,108.00"/>
        <lane id=":10_0_1" index="1" speed="9.62" length="20.97" shape="298.40,121.51 297.85,114.20 296.20,108.98 293.45,105.84 289.60,104.80"/>
    </edge>
    <edge id=":10_2" function="internal">
        <lane id=":10_2_0" index="0" speed="13.33" length="41.22" shape="298.40,121.51 299.95,110.00 304.60,101.78 312.35,96.84 323.20,95.20"/>
    </edge>
    <edge id=":10_3" function="internal">
        <lane id=":10_3_0" index="0" speed="3.65" length="4.67" shape="298.40,121.51 299.20,120.31 300.00,119.91 300.80,120.31 301.60,121.51"/>
    </edge>
    <edge id=":10_4" function="internal">
        <lane id=":10_4_0" index="0" speed="7.24" length="15.48" shape="317.77,121.41 312.10,118.98 308.04,118.19 305.61,119.03 304.80,121.51"/>
    </edge>
    <edge id=":10_5" function="internal">
        <lane id=":10_5_0" index="0" speed="13.90" length="33.27" shape="317.77,121.41 309.59,116.37 304.08,112.09 298.37,109.11 289.60,108.00"/>
        <lane id=":10_5_1" index="1" speed="13.90" length="33.27" shape="319.20,118.54 310.53,113.32 304.55,108.94 298.50,105.92 289.60,104.80"/>
        <lane id=":10_5_2" index="2" speed="13.90" length="33.27" shape="320.63,115.68 311.46,110.27 305.03,105.78 298.63,102.73 289.60,101.60"/>
    </edge>
    <edge id=":10_8" function="internal">
        <lane id=":10_8_0" index="0" speed="7.03" length="15.74" shape="322.06,112.82 318.08,109.05 316.92,104.26 318.62,100.15 319.44,99.83"/>
    </edge>
    <edge id=":10_19" function="internal">
        <lane id=":10_19_0" index="0" speed="7.03" length="4.02" shape="319.44,99.83 323.20,98.40"/>
    </edge>
    <edge id=":10_9" function="internal">
        <lane id=":10_9_0" index="0" speed="11.16" length="28.61" shape="323.20,108.00 313.75,108.84 307.00,111.38 302.95,115.60 301.60,121.51"/>
    </edge>
    <edge id=":10_10" function="internal">
        <lane id=":10_10_0" index="0" speed="13.90" length="33.60" shape="323.20,108.00 289.60,108.00"/>
        <lane id=":10_10_1" index="1" speed="13.90" length="33.60" shape="323.20,104.80 289.60,104.80"/>
        <lane id=":10_10_2" index="2" speed="13.90" length="33.60" shape="323.20,101.60 289.60,101.60"/>
    </edge>
    <edge id=":10_13" function="internal">
        <lane id=":10_13_0" index="0" speed="3.65" length="4.67" shape="323.20,101.60 322.00,100.80 321.60,100.00 322.00,99.20 323.20,98.40"/>
    </edge>
    <edge id=":10_14" function="internal">
        <lane id=":10_14_0" index="0" speed="13.90" length="33.60" shape="289.60,92.00 323.20,92.00"/>
        <lane id=":10_14_1" index="1" speed="13.90" length="33.60" shape="289.60,95.20 323.20,95.20"/>
        <lane id=":10_14_2" index="2" speed="13.90" length="33.60" shape="289.60,98.40 323.20,98.40"/>
    </edge>
    <edge id=":10_17" function="internal">
        <lane id=":10_17_0" index="0" speed="11.21" length="4.77" shape="289.60,98.40 294.19,99.66"/>
    </edge>
    <edge id=":10_18" function="internal">
        <lane id=":10_18_0" index="0" speed="3.65" length="1.44" shape="289.60,98.40 290.80,99.20"/>
    </edge>
    <edge id=":10_20" function="internal">
        <lane id=":10_20_0" index="0" speed="11.21" length="24.11" shape="294.19,99.66 294.85,99.84 298.60,104.18 300.85,111.40 301.60,121.51"/>
    </edge>
    <edge id=":10_21" function="internal">
        <lane id=":10_21_0" index="0" speed="3.65" length="3.23" shape="290.80,99.20 291.20,100.00 290.80,100.80 289.60,101.60"/>
    </edge>
    <edge id=":11_0" function="internal">
        <lane id=":11_0_0" index="0" speed="6.51" length="9.03" shape="295.20,210.40 294.85,207.95 293.80,206.20 292.05,205.15 289.60,204.80"/>
    </edge>
    <edge id=":11_1" function="internal">
        <lane id=":11_1_0" index="0" speed="13.90" length="20.80" shape="295.20,210.40 295.20,189.60"/>
        <lane id=":11_1_1" index="1" speed="13.90" length="20.80" shape="298.40,210.40 298.40,189.60"/>
    </edge>
    <edge id=":11_3" function="internal">
        <lane id=":11_3_0" index="0" speed="3.65" length="1.44" shape="298.40,210.40 299.20,209.20"/>
    </edge>
    <edge id=":11_11" function="internal">
        <lane id=":11_11_0" index="0" speed="3.65" length="3.23" shape="299.20,209.20 300.00,208.80 300.80,209.20 301.60,210.40"/>
    </edge>
    <edge id=":11_4" function="internal">
        <lane id=":11_4_0" index="0" speed="13.90" length="20.80" shape="304.80,189.60 304.80,210.40"/>
        <lane id=":11_4_1" index="1" speed="13.90" length="20.80" shape="301.60,189.60 301.60,210.40"/>
    </edge>
    <edge id=":11_6" function="internal">
        <lane id=":11_6_0" index="0" speed="9.26" length="5.01" shape="301.60,189.60 300.89,194.56"/>
    </edge>
    <edge id=":11_7" function="internal">
        <lane id=":11_7_0" index="0" speed="3.65" length="1.44" shape="301.60,189.60 300.80,190.80"/>
    </edge>
    <edge id=":11_12" function="internal">
        <lane id=":11_12_0" index="0" speed="9.26" length="14.34" shape="300.89,194.56 300.85,194.85 298.60,198.60 294.85,200.85 289.60,201.60"/>
    </edge>
    <edge id=":11_13" function="internal">
        <lane id=":11_13_0" index="0" speed="3.65" length="3.23" shape="300.80,190.80 300.00,191.20 299.20,190.80 298.40,189.60"/>
    </edge>
    <edge id=":11_8" function="internal">
        <lane id=":11_8_0" index="0" speed="6.51" length="9.03" shape="289.60,195.20 292.05,194.85 293.80,193.80 294.85,192.05 295.20,189.60"/>
    </edge>
    <edge id=":11_9" function="internal">
        <lane id=":11_9_0" index="0" speed="9.26" length="19.35" shape="289.60,198.40 294.85,199.15 298.60,201.40 300.85,205.15 301.60,210.40"/>
    </edge>
    <edge id=":11_10" function="internal">
        <lane id=":11_10_0" index="0" speed="3.65" length="4.67" shape="289.60,198.40 290.80,199.20 291.20,200.00 290.80,200.80 289.60,201.60"/>
    </edge>
    <edge id=":12_0" function="internal">
        <lane id=":12_0_0" index="0" speed="11.05" length="27.99" shape="295.20,310.40 293.56,307.95 288.62,306.20 280.40,305.15 268.89,304.80"/>
    </edge>
    <edge id=":12_1" function="internal">
        <lane id=":12_1_0" index="0" speed="13.90" length="33.01" shape="295.20,310.40 293.63,306.36 288.91,301.68 281.04,296.35 270.03,290.38"/>
    </edge>
    <edge id=":12_2" function="internal">
        <lane id=":12_2_0" index="0" speed="13.90" length="20.80" shape="295.20,310.40 295.20,289.60"/>
        <lane id=":12_2_1" index="1" speed="13.90" length="20.80" shape="298.40,310.40 298.40,289.60"/>
    </edge>
    <edge id=":12_4" function="internal">
        <lane id=":12_4_0" index="0" speed="9.26" length="5.01" shape="298.40,310.40 299.11,305.44"/>
    </edge>
    <edge id=":12_5" function="internal">
        <lane id=":12_5_0" index="0" speed="3.65" length="1.44" shape="298.40,310.40 299.20,309.20"/>
    </edge>
    <edge id=":12_24" function="internal">
        <lane id=":12_24_0" index="0" speed="9.26" length="14.34" shape="299.11,305.44 299.15,305.15 301.40,301.40 305.15,299.15 310.40,298.40"/>
    </edge>
    <edge id=":12_25" function="internal">
        <lane id=":12_25_0" index="0" speed="3.65" length="3.23" shape="299.20,309.20 300.00,308.80 300.80,309.20 301.60,310.40"/>
    </edge>
    <edge id=":12_6" function="internal">
        <lane id=":12_6_0" index="0" speed="6.51" length="9.03" shape="310.40,304.80 307.95,305.15 306.20,306.20 305.15,307.95 304.80,310.40"/>
    </edge>
    <edge id=":12_7" function="internal">
        <lane id=":12_7_0" index="0" speed="13.90" length="41.51" shape="310.40,304.80 268.89,304.80"/>
        <lane id=":12_7_1" index="1" speed="13.90" length="41.51" shape="310.40,301.60 268.89,301.60"/>
    </edge>
    <edge id=":12_9" function="internal">
        <lane id=":12_9_0" index="0" speed="13.90" length="41.62" shape="310.40,301.60 301.35,300.03 290.53,296.24 279.91,291.60 271.46,287.52"/>
    </edge>
    <edge id=":12_10" function="internal">
        <lane id=":12_10_0" index="0" speed="9.26" length="19.35" shape="310.40,301.60 305.15,300.85 301.40,298.60 299.15,294.85 298.40,289.60"/>
    </edge>
    <edge id=":12_11" function="internal">
        <lane id=":12_11_0" index="0" speed="3.65" length="4.67" shape="310.40,301.60 309.20,300.80 308.80,300.00 309.20,299.20 310.40,298.40"/>
    </edge>
    <edge id=":12_12" function="internal">
        <lane id=":12_12_0" index="0" speed="6.51" length="9.03" shape="304.80,289.60 305.15,292.05 306.20,293.80 307.95,294.85 310.40,295.20"/>
    </edge>
    <edge id=":12_13" function="internal">
        <lane id=":12_13_0" index="0" speed="13.90" length="20.80" shape="304.80,289.60 304.80,310.40"/>
        <lane id=":12_13_1" index="1" speed="13.90" length="20.80" shape="301.60,289.60 301.60,310.40"/>
    </edge>
    <edge id=":12_15" function="internal">
        <lane id=":12_15_0" index="0" speed="12.75" length="2.10" shape="301.60,289.60 300.84,291.56"/>
    </edge>
    <edge id=":12_16" function="internal">
        <lane id=":12_16_0" index="0" speed="10.63" length="1.80" shape="301.60,289.60 300.81,291.21"/>
    </edge>
    <edge id=":12_17" function="internal">
        <lane id=":12_17_0" index="0" speed="3.65" length="1.44" shape="301.60,289.60 300.80,290.80"/>
    </edge>
    <edge id=":12_26" function="internal">
        <lane id=":12_26_0" index="0" speed="12.75" length="35.52" shape="300.84,291.56 299.56,294.85 293.42,298.60 283.20,300.85 268.89,301.60"/>
    </edge>
    <edge id=":12_27" function="internal">
        <lane id=":12_27_0" index="0" speed="10.63" length="33.18" shape="300.81,291.21 299.00,294.90 292.16,295.43 282.50,292.53 271.46,287.52"/>
    </edge>
    <edge id=":12_28" function="internal">
        <lane id=":12_28_0" index="0" speed="3.65" length="3.23" shape="300.80,290.80 300.00,291.20 299.20,290.80 298.40,289.60"/>
    </edge>
    <edge id=":12_18" function="internal">
        <lane id=":12_18_0" index="0" speed="5.60" length="11.85" shape="268.89,295.20 273.00,294.90 274.56,294.00 273.57,292.49 270.03,290.38"/>
    </edge>
    <edge id=":12_19" function="internal">
        <lane id=":12_19_0" index="0" speed="11.05" length="27.99" shape="268.89,295.20 280.40,294.85 288.62,293.80 293.56,292.05 295.20,289.60"/>
    </edge>
    <edge id=":12_20" function="internal">
        <lane id=":12_20_0" index="0" speed="13.90" length="41.51" shape="268.89,295.20 310.40,295.20"/>
        <lane id=":12_20_1" index="1" speed="13.90" length="41.51" shape="268.89,298.40 310.40,298.40"/>
    </edge>
    <edge id=":12_22" function="internal">
        <lane id=":12_22_0" index="0" speed="12.75" length="37.62" shape="268.89,298.40 283.20,299.15 293.42,301.40 299.56,305.15 301.60,310.40"/>
    </edge>
    <edge id=":12_23" function="internal">
        <lane id=":12_23_0" index="0" speed="3.65" length="4.67" shape="268.89,298.40 270.09,299.20 270.49,300.00 270.09,300.80 268.89,301.60"/>
    </edge>
    <edge id=":13_0" function="internal">
        <lane id=":13_0_0" index="0" speed="13.90" length="20.80" shape="310.40,404.80 289.60,404.80"/>
        <lane id=":13_0_1" index="1" speed="13.90" length="20.80" shape="310.40,401.60 289.60,401.60"/>
    </edge>
    <edge id=":13_2" function="internal">
        <lane id=":13_2_0" index="0" speed="9.26" length="5.01" shape="310.40,401.60 305.44,400.89"/>
    </edge>
    <edge id=":13_3" function="internal">
        <lane id=":13_3_0" index="0" speed="3.65" length="1.44" shape="310.40,401.60 309.20,400.80"/>
    </edge>
    <edge id=":13_11" function="internal">
        <lane id=":13_11_0" index="0" speed="9.26" length="14.34" shape="305.44,400.89 305.15,400.85 301.40,398.60 299.15,394.85 298.40,389.60"/>
    </edge>
    <edge id=":13_12" function="internal">
        <lane id=":13_12_0" index="0" speed="3.65" length="3.23" shape="309.20,400.80 308.80,400.00 309.20,399.20 310.40,398.40"/>
    </edge>
    <edge id=":13_4" function="internal">
        <lane id=":13_4_0" index="0" speed="6.51" length="9.03" shape="304.80,389.60 305.15,392.05 306.20,393.80 307.95,394.85 310.40,395.20"/>
    </edge>
    <edge id=":13_5" function="internal">
        <lane id=":13_5_0" index="0" speed="9.26" length="19.35" shape="301.60,389.60 300.85,394.85 298.60,398.60 294.85,400.85 289.60,401.60"/>
    </edge>
    <edge id=":13_6" function="internal">
        <lane id=":13_6_0" index="0" speed="3.65" length="4.67" shape="301.60,389.60 300.80,390.80 300.00,391.20 299.20,390.80 298.40,389.60"/>
    </edge>
    <edge id=":13_7" function="internal">
        <lane id=":13_7_0" index="0" speed="6.51" length="9.03" shape="289.60,395.20 292.05,394.85 293.80,393.80 294.85,392.05 295.20,389.60"/>
    </edge>
    <edge id=":13_8" function="internal">
        <lane id=":13_8_0" index="0" speed="13.90" length="20.80" shape="289.60,395.20 310.40,395.20"/>
        <lane id=":13_8_1" index="1" speed="13.90" length="20.80" shape="289.60,398.40 310.40,398.40"/>
    </edge>
    <edge id=":13_10" function="internal">
        <lane id=":13_10_0" index="0" speed="3.65" length="1.44" shape="289.60,398.40 290.80,399.20"/>
    </edge>
    <edge id=":13_13" function="internal">
        <lane id=":13_13_0" index="0" speed="3.65" length="3.23" shape="290.80,399.20 291.20,400.00 290.80,400.80 289.60,401.60"/>
    </edge>
    <edge id=":15_0" function="internal">
        <lane id=":15_0_0" index="0" speed="3.65" length="4.67" shape="400.00,98.40 401.20,99.20 401.60,100.00 401.20,100.80 400.00,101.60"/>
    </edge>
    <edge id=":17_0" function="internal">
        <lane id=":17_0_0" index="0" speed="3.90" length="2.58" shape="395.20,306.40 395.10,305.70 394.80,305.20 394.30,304.90 393.60,304.80"/>
        <lane id=":17_0_1" index="1" speed="6.08" length="7.74" shape="398.40,306.40 398.10,304.30 397.20,302.80 395.70,301.90 393.60,301.60"/>
    </edge>
    <edge id=":17_2" function="internal">
        <lane id=":17_2_0" index="0" speed="8.96" length="18.06" shape="393.60,295.20 398.50,295.90 402.00,298.00 404.10,301.50 404.80,306.40"/>
        <lane id=":17_2_1" index="1" speed="7.66" length="12.90" shape="393.60,298.40 397.10,298.90 399.60,300.40 401.10,302.90 401.60,306.40"/>
    </edge>
    <edge id=":18_0" function="internal">
        <lane id=":18_0_0" index="0" speed="8.96" length="18.06" shape="404.80,393.60 404.10,398.50 402.00,402.00 398.50,404.10 393.60,404.80"/>
        <lane id=":18_0_1" index="1" speed="7.66" length="12.90" shape="401.60,393.60 401.10,397.10 399.60,399.60 397.10,401.10 393.60,401.60"/>
    </edge>
    <edge id=":18_2" function="internal">
        <lane id=":18_2_0" index="0" speed="3.90" length="2.58" shape="393.60,395.20 394.30,395.10 394.80,394.80 395.10,394.30 395.20,393.60"/>
        <lane id=":18_2_1" index="1" speed="6.08" length="7.74" shape="393.60,398.40 395.70,398.10 397.20,397.20 398.10,395.70 398.40,393.60"/>
    </edge>
    <edge id=":2_0" function="internal">
        <lane id=":2_0_0" index="0" speed="13.90" length="18.36" shape="95.20,214.36 95.20,196.00"/>
        <lane id=":2_0_1" index="1" speed="13.90" length="18.36" shape="98.40,214.36 98.40,196.00"/>
    </edge>
    <edge id=":2_2" function="internal">
        <lane id=":2_2_0" index="0" speed="3.65" length="1.44" shape="98.40,214.36 99.20,213.16"/>
    </edge>
    <edge id=":2_10" function="internal">
        <lane id=":2_10_0" index="0" speed="3.65" length="3.23" shape="99.20,213.16 100.00,212.76 100.80,213.16 101.60,214.36"/>
    </edge>
    <edge id=":2_3" function="internal">
        <lane id=":2_3_0" index="0" speed="6.50" length="12.18" shape="114.23,212.48 110.10,210.83 107.16,210.59 105.39,211.77 104.80,214.36"/>
    </edge>
    <edge id=":2_4" function="internal">
        <lane id=":2_4_0" index="0" speed="12.29" length="22.55" shape="115.66,209.62 108.11,205.53 102.72,201.90 99.48,198.72 98.40,196.00"/>
    </edge>
    <edge id=":2_5" function="internal">
        <lane id=":2_5_0" index="0" speed="9.44" length="20.17" shape="116.80,204.80 110.15,205.40 105.40,207.19 102.55,210.17 101.60,214.36"/>
    </edge>
    <edge id=":2_6" function="internal">
        <lane id=":2_6_0" index="0" speed="9.51" length="20.48" shape="116.80,201.60 108.75,201.25 103.00,200.20 99.55,198.45 98.40,196.00"/>
    </edge>
    <edge id=":2_7" function="internal">
        <lane id=":2_7_0" index="0" speed="13.90" length="18.36" shape="104.80,196.00 104.80,214.36"/>
        <lane id=":2_7_1" index="1" speed="13.90" length="18.36" shape="101.60,196.00 101.60,214.36"/>
    </edge>
    <edge id=":2_9" function="internal">
        <lane id=":2_9_0" index="0" speed="3.65" length="1.44" shape="101.60,196.00 100.80,197.20"/>
    </edge>
    <edge id=":2_11" function="internal">
        <lane id=":2_11_0" index="0" speed="3.65" length="3.23" shape="100.80,197.20 100.00,197.60 99.20,197.20 98.40,196.00"/>
    </edge>
    <edge id=":3_0" function="internal">
        <lane id=":3_0_0" index="0" speed="6.51" length="9.03" shape="95.20,310.40 94.85,307.95 93.80,306.20 92.05,305.15 89.60,304.80"/>
    </edge>
    <edge id=":3_1" function="internal">
        <lane id=":3_1_0" index="0" speed="13.90" length="20.80" shape="95.20,310.40 95.20,289.60"/>
        <lane id=":3_1_1" index="1" speed="13.90" length="20.80" shape="98.40,310.40 98.40,289.60"/>
    </edge>
    <edge id=":3_3" function="internal">
        <lane id=":3_3_0" index="0" speed="9.26" length="5.01" shape="98.40,310.40 99.11,305.44"/>
    </edge>
    <edge id=":3_4" function="internal">
        <lane id=":3_4_0" index="0" speed="3.65" length="1.44" shape="98.40,310.40 99.20,309.20"/>
    </edge>
    <edge id=":3_20" function="internal">
        <lane id=":3_20_0" index="0" speed="9.26" length="14.34" shape="99.11,305.44 99.15,305.15 101.40,301.40 105.15,299.15 110.40,298.40"/>
    </edge>
    <edge id=":3_21" function="internal">
        <lane id=":3_21_0" index="0" speed="3.65" length="3.23" shape="99.20,309.20 100.00,308.80 100.80,309.20 101.60,310.40"/>
    </edge>
    <edge id=":3_5" function="internal">
        <lane id=":3_5_0" index="0" speed="6.51" length="9.03" shape="110.40,304.80 107.95,305.15 106.20,306.20 105.15,307.95 104.80,310.40"/>
    </edge>
    <edge id=":3_6" function="internal">
        <lane id=":3_6_0" index="0" speed="13.90" length="20.80" shape="110.40,304.80 89.60,304.80"/>
        <lane id=":3_6_1" index="1" speed="13.90" length="20.80" shape="110.40,301.60 89.60,301.60"/>
    </edge>
    <edge id=":3_8" function="internal">
        <lane id=":3_8_0" index="0" speed="9.26" length="19.35" shape="110.40,301.60 105.15,300.85 101.40,298.60 99.15,294.85 98.40,289.60"/>
    </edge>
    <edge id=":3_9" function="internal">
        <lane id=":3_9_0" index="0" speed="3.65" length="4.67" shape="110.40,301.60 109.20,300.80 108.80,300.00 109.20,299.20 110.40,298.40"/>
    </edge>
    <edge id=":3_10" function="internal">
        <lane id=":3_10_0" index="0" speed="6.51" length="9.03" shape="104.80,289.60 105.15,292.05 106.20,293.80 107.95,294.85 110.40,295.20"/>
    </edge>
    <edge id=":3_11" function="internal">
        <lane id=":3_11_0" index="0" speed="13.90" length="20.80" shape="104.80,289.60 104.80,310.40"/>
        <lane id=":3_11_1" index="1" speed="13.90" length="20.80" shape="101.60,289.60 101.60,310.40"/>
    </edge>
    <edge id=":3_13" function="internal">
        <lane id=":3_13_0" index="0" speed="9.26" length="5.01" shape="101.60,289.60 100.89,294.56"/>
    </edge>
    <edge id=":3_14" function="internal">
        <lane id=":3_14_0" index="0" speed="3.65" length="1.44" shape="101.60,289.60 100.80,290.80"/>
    </edge>
    <edge id=":3_22" function="internal">
        <lane id=":3_22_0" index="0" speed="9.26" length="14.34" shape="100.89,294.56 100.85,294.85 98.60,298.60 94.85,300.85 89.60,301.60"/>
    </edge>
    <edge id=":3_23" function="internal">
        <lane id=":3_23_0" index="0" speed="3.65" length="3.23" shape="100.80,290.80 100.00,291.20 99.20,290.80 98.40,289.60"/>
    </edge>
    <edge id=":3_15" function="internal">
        <lane id=":3_15_0" index="0" speed="6.51" length="9.03" shape="89.60,295.20 92.05,294.85 93.80,293.80 94.85,292.05 95.20,289.60"/>
    </edge>
    <edge id=":3_16" function="internal">
        <lane id=":3_16_0" index="0" speed="13.90" length="20.80" shape="89.60,295.20 110.40,295.20"/>
        <lane id=":3_16_1" index="1" speed="13.90" length="20.80" shape="89.60,298.40 110.40,298.40"/>
    </edge>
    <edge id=":3_18" function="internal">
        <lane id=":3_18_0" index="0" speed="9.26" length="19.35" shape="89.60,298.40 94.85,299.15 98.60,301.40 100.85,305.15 101.60,310.40"/>
    </edge>
    <edge id=":3_19" function="internal">
        <lane id=":3_19_0" index="0" speed="3.65" length="4.67" shape="89.60,298.40 90.80,299.20 91.20,300.00 90.80,300.80 89.60,301.60"/>
    </edge>
    <edge id=":4_0" function="internal">
        <lane id=":4_0_0" index="0" speed="8.96" length="18.06" shape="106.40,404.80 101.50,404.10 98.00,402.00 95.90,398.50 95.20,393.60"/>
        <lane id=":4_0_1" index="1" speed="7.66" length="12.90" shape="106.40,401.60 102.90,401.10 100.40,399.60 98.90,397.10 98.40,393.60"/>
    </edge>
    <edge id=":4_2" function="internal">
        <lane id=":4_2_0" index="0" speed="3.90" length="2.58" shape="104.80,393.60 104.90,394.30 105.20,394.80 105.70,395.10 106.40,395.20"/>
        <lane id=":4_2_1" index="1" speed="6.08" length="7.74" shape="101.60,393.60 101.90,395.70 102.80,397.20 104.30,398.10 106.40,398.40"/>
    </edge>
    <edge id=":5_0" function="internal">
        <lane id=":5_0_0" index="0" speed="3.65" length="4.67" shape="198.40,0.00 199.20,-1.20 200.00,-1.60 200.80,-1.20 201.60,0.00"/>
    </edge>
    <edge id=":6_0" function="internal">
        <lane id=":6_0_0" index="0" speed="6.51" length="9.03" shape="195.20,116.80 194.85,114.35 193.80,112.60 192.05,111.55 189.60,111.20"/>
    </edge>
    <edge id=":6_1" function="internal">
        <lane id=":6_1_0" index="0" speed="13.90" length="30.40" shape="195.20,116.80 195.20,86.40"/>
        <lane id=":6_1_1" index="1" speed="13.90" length="30.40" shape="198.40,116.80 198.40,86.40"/>
    </edge>
    <edge id=":6_3" function="internal">
        <lane id=":6_3_0" index="0" speed="10.41" length="24.73" shape="198.40,116.80 199.15,108.75 201.40,103.00 205.15,99.55 210.40,98.40"/>
    </edge>
    <edge id=":6_4" function="internal">
        <lane id=":6_4_0" index="0" speed="3.65" length="4.67" shape="198.40,116.80 199.20,115.60 200.00,115.20 200.80,115.60 201.60,116.80"/>
    </edge>
    <edge id=":6_5" function="internal">
        <lane id=":6_5_0" index="0" speed="7.33" length="11.73" shape="210.40,108.00 207.95,108.55 206.20,110.20 205.15,112.95 204.80,116.80"/>
    </edge>
    <edge id=":6_6" function="internal">
        <lane id=":6_6_0" index="0" speed="13.90" length="21.04" shape="210.40,108.00 204.19,108.50 200.00,109.60 195.81,110.70 189.60,111.20"/>
        <lane id=":6_6_1" index="1" speed="13.90" length="21.04" shape="210.40,104.80 204.19,105.30 200.00,106.40 195.81,107.50 189.60,108.00"/>
        <lane id=":6_6_2" index="2" speed="13.90" length="21.04" shape="210.40,101.60 204.19,102.10 200.00,103.20 195.81,104.30 189.60,104.80"/>
        <lane id=":6_6_3" index="3" speed="13.90" length="21.04" shape="210.40,101.60 189.60,101.60"/>
    </edge>
    <edge id=":6_10" function="internal">
        <lane id=":6_10_0" index="0" speed="9.84" length="4.01" shape="210.40,101.60 206.45,100.89"/>
    </edge>
    <edge id=":6_11" function="internal">
        <lane id=":6_11_0" index="0" speed="3.65" length="1.44" shape="210.40,101.60 209.20,100.80"/>
    </edge>
    <edge id=":6_23" function="internal">
        <lane id=":6_23_0" index="0" speed="9.84" length="17.98" shape="206.45,100.89 205.15,100.65 201.40,97.80 199.15,93.05 198.40,86.40"/>
    </edge>
    <edge id=":6_24" function="internal">
        <lane id=":6_24_0" index="0" speed="3.65" length="3.23" shape="209.20,100.80 208.80,100.00 209.20,99.20 210.40,98.40"/>
    </edge>
    <edge id=":6_12" function="internal">
        <lane id=":6_12_0" index="0" speed="6.51" length="9.03" shape="204.80,86.40 205.15,88.85 206.20,90.60 207.95,91.65 210.40,92.00"/>
    </edge>
    <edge id=":6_13" function="internal">
        <lane id=":6_13_0" index="0" speed="13.90" length="30.40" shape="204.80,86.40 204.80,116.80"/>
        <lane id=":6_13_1" index="1" speed="13.90" length="30.40" shape="201.60,86.40 201.60,116.80"/>
    </edge>
    <edge id=":6_15" function="internal">
        <lane id=":6_15_0" index="0" speed="9.84" length="21.99" shape="201.60,86.40 200.85,93.05 198.60,97.80 194.85,100.65 189.60,101.60"/>
    </edge>
    <edge id=":6_16" function="internal">
        <lane id=":6_16_0" index="0" speed="3.65" length="4.67" shape="201.60,86.40 200.80,87.60 200.00,88.00 199.20,87.60 198.40,86.40"/>
    </edge>
    <edge id=":6_17" function="internal">
        <lane id=":6_17_0" index="0" speed="6.51" length="9.03" shape="189.60,92.00 192.05,91.65 193.80,90.60 194.85,88.85 195.20,86.40"/>
    </edge>
    <edge id=":6_18" function="internal">
        <lane id=":6_18_0" index="0" speed="13.90" length="20.80" shape="189.60,92.00 210.40,92.00"/>
        <lane id=":6_18_1" index="1" speed="13.90" length="20.80" shape="189.60,95.20 210.40,95.20"/>
        <lane id=":6_18_2" index="2" speed="13.90" length="20.80" shape="189.60,98.40 210.40,98.40"/>
    </edge>
    <edge id=":6_21" function="internal">
        <lane id=":6_21_0" index="0" speed="10.41" length="3.37" shape="189.60,98.40 192.89,99.12"/>
    </edge>
    <edge id=":6_22" function="internal">
        <lane id=":6_22_0" index="0" speed="3.65" length="1.44" shape="189.60,98.40 190.80,99.20"/>
    </edge>
    <edge id=":6_25" function="internal">
        <lane id=":6_25_0" index="0" speed="10.41" length="21.36" shape="192.89,99.12 194.85,99.55 198.60,103.00 200.85,108.75 201.60,116.80"/>
    </edge>
    <edge id=":6_26" function="internal">
        <lane id=":6_26_0" index="0" speed="3.65" length="3.23" shape="190.80,99.20 191.20,100.00 190.80,100.80 189.60,101.60"/>
    </edge>
    <edge id=":7_0" function="internal">
        <lane id=":7_0_0" index="0" speed="6.51" length="9.03" shape="195.20,210.40 194.85,207.95 193.80,206.20 192.05,205.15 189.60,204.80"/>
    </edge>
    <edge id=":7_1" function="internal">
        <lane id=":7_1_0" index="0" speed="13.90" length="20.80" shape="195.20,210.40 195.20,189.60"/>
        <lane id=":7_1_1" index="1" speed="13.90" length="20.80" shape="198.40,210.40 198.40,189.60"/>
    </edge>
    <edge id=":7_3" function="internal">
        <lane id=":7_3_0" index="0" speed="9.26" length="5.01" shape="198.40,210.40 199.11,205.44"/>
    </edge>
    <edge id=":7_4" function="internal">
        <lane id=":7_4_0" index="0" speed="3.65" length="1.44" shape="198.40,210.40 199.20,209.20"/>
    </edge>
    <edge id=":7_15" function="internal">
        <lane id=":7_15_0" index="0" speed="9.26" length="14.34" shape="199.11,205.44 199.15,205.15 201.40,201.40 205.15,199.15 210.40,198.40"/>
    </edge>
    <edge id=":7_16" function="internal">
        <lane id=":7_16_0" index="0" speed="3.65" length="3.23" shape="199.20,209.20 200.00,208.80 200.80,209.20 201.60,210.40"/>
    </edge>
    <edge id=":7_5" function="internal">
        <lane id=":7_5_0" index="0" speed="6.51" length="9.03" shape="210.40,204.80 207.95,205.15 206.20,206.20 205.15,207.95 204.80,210.40"/>
    </edge>
    <edge id=":7_6" function="internal">
        <lane id=":7_6_0" index="0" speed="13.90" length="20.80" shape="210.40,204.80 189.60,204.80"/>
        <lane id=":7_6_1" index="1" speed="13.90" length="20.80" shape="210.40,201.60 189.60,201.60"/>
    </edge>
    <edge id=":7_8" function="internal">
        <lane id=":7_8_0" index="0" speed="9.26" length="19.35" shape="210.40,201.60 205.15,200.85 201.40,198.60 199.15,194.85 198.40,189.60"/>
    </edge>
    <edge id=":7_9" function="internal">