<nodes><node id="V0001" x="129.56133333333335" y="284.156" type="priority" /><node id="V0002" x="430.3193333333333" y="742.7666666666667" type="priority" /><node id="V0003" x="266.74" y="464.92333333333335" type="priority" /><node id="V0004" x="63.4134" y="61.36253333333333" type="priority" /><node id="V0005" x="492.2026666666667" y="409.6153333333333" type="priority" /><node id="V0006" x="843.06" y="288.3226666666667" type="priority" /><node id="V0007" x="166.05333333333334" y="697.7133333333334" type="priority" /><node id="V0008" x="856.2733333333333" y="16.341666666666665" type="priority" /><node id="V0009" x="233.99133333333333" y="139.52266666666668" type="priority" /><node id="V0010" x="474.9166666666667" y="67.28733333333334" type="priority" /><node id="V0011" x="308.53266666666667" y="557.0586666666666" type="priority" /><node id="V0012" x="252.84" y="326.80533333333335" type="priority" /><node id="V0013" x="367.98400000000004" y="285.548" type="priority" /><node id="V0014" x="718.12" y="251.95200000000003" type="priority" /><node id="V0015" x="279.0833333333333" y="461.8953333333333" type="priority" /><node id="V0016" x="659.6039999999999" y="351.74399999999997" type="priority" /><node id="V0017" x="259.336" y="482.04133333333334" type="priority" /><node id="V0018" x="334.122" y="596.0786666666667" type="priority" /><node id="V0019" x="632.7973333333333" y="236.954" type="priority" /><node id="V0020" x="195.69866666666667" y="307.0366666666667" type="priority" /><node id="V0021" x="334.01266666666663" y="354.888" type="priority" /><node id="V0022" x="263.528" y="433.00600000000003" type="priority" /><node id="V0023" x="248.61733333333333" y="284.85133333333334" type="priority" /><node id="V0024" x="697.2933333333333" y="287.4713333333333" type="priority" /><node id="V0025" x="426.0933333333333" y="166.94133333333332" type="priority" /><node id="V0026" x="446.5466666666667" y="420.8153333333333" type="priority" /><node id="V0027" x="347.1073333333333" y="588.226" type="priority" /><node id="V0028" x="616.4353333333333" y="425.36266666666666" type="priority" /><node id="V0029" x="266.42199999999997" y="492.84666666666664" type="priority" /><node id="V0030" x="715.12" y="257.066" type="priority" /><node id="V0031" x="417.55533333333335" y="184.36866666666668" type="priority" /><node id="V0032" x="640.4946666666667" y="229.35466666666667" type="priority" /><node id="V0033" x="183.54799999999997" y="284.4713333333333" type="priority" /><node id="V0034" x="466.796" y="400.82533333333333" type="priority" /><node id="V0035" x="582.3033333333333" y="286.8" type="priority" /><node id="V0036" x="281.928" y="461.19733333333335" type="priority" /><node id="V0037" x="322.7613333333333" y="543.0120000000001" type="priority" /><node id="V0038" x="280.394" y="464.32866666666666" type="priority" /></nodes>