<?xml version="1.0" encoding="UTF-8"?>

<!-- generated on 2023-06-26 02:05:31 by Eclipse SUMO netconvert Version 1.16.0
<configuration xmlns:xsi="http://www.w3.org/2001/XMLSchema-instance" xsi:noNamespaceSchemaLocation="http://sumo.dlr.de/xsd/netconvertConfiguration.xsd">

    <input>
        <node-files value="data/simulationConfigurations/tests/24\24.nod.xml"/>
        <edge-files value="data/simulationConfigurations/tests/24\24.edg.xml"/>
    </input>

    <output>
        <output-file value="data/simulationConfigurations/tests/24\24.net.xml"/>
    </output>

</configuration>
-->

<net version="1.16" junctionCornerDetail="5" limitTurnSpeed="5.50" xmlns:xsi="http://www.w3.org/2001/XMLSchema-instance" xsi:noNamespaceSchemaLocation="http://sumo.dlr.de/xsd/net_file.xsd">

    <location netOffset="-63.41,-16.34" convBoundary="0.00,0.00,792.86,726.42" origBoundary="63.41,16.34,856.27,742.77" projParameter="!"/>

    <edge id=":V0003_0" function="internal">
        <lane id=":V0003_0_0" index="0" speed="5.27" length="9.90" shape="187.28,419.50 189.80,422.40 191.48,423.38 192.34,422.45 192.37,419.61"/>
    </edge>
    <edge id=":V0003_1" function="internal">
        <lane id=":V0003_1_0" index="0" speed="13.82" length="30.55" shape="187.28,419.50 195.25,429.83 201.18,437.15 205.08,441.45 206.95,442.75"/>
        <lane id=":V0003_1_1" index="1" speed="14.50" length="33.88" shape="184.73,421.43 193.38,432.46 200.09,440.21 204.87,444.68 207.71,445.86"/>
    </edge>
    <edge id=":V0003_3" function="internal">
        <lane id=":V0003_3_0" index="0" speed="9.50" length="29.04" shape="195.10,447.46 197.73,439.57 197.95,433.78 196.86,427.79 195.55,419.29"/>
        <lane id=":V0003_3_1" index="1" speed="9.50" length="29.04" shape="195.10,447.46 198.27,439.46 199.59,433.63 199.58,427.60 198.74,418.97"/>
    </edge>
    <edge id=":V0003_5" function="internal">
        <lane id=":V0003_5_0" index="0" speed="9.84" length="11.10" shape="198.03,448.73 199.28,446.76 201.18,445.11 203.73,443.78 206.95,442.75"/>
        <lane id=":V0003_5_1" index="1" speed="8.51" length="8.16" shape="200.97,450.00 201.84,448.70 203.26,447.57 205.21,446.63 207.71,445.86"/>
    </edge>
    <edge id=":V0004_0" function="internal">
        <lane id=":V0004_0_0" index="0" speed="9.16" length="29.30" shape="-3.55,49.93 -2.41,46.24 3.38,46.36 12.03,49.10 21.76,53.23"/>
    </edge>
    <edge id=":V0004_1" function="internal">
        <lane id=":V0004_1_0" index="0" speed="6.23" length="17.19" shape="0.64,52.81 2.61,58.97 3.64,60.99 3.72,58.87 2.84,52.61"/>
    </edge>
    <edge id=":V0004_2" function="internal">
        <lane id=":V0004_2_0" index="0" speed="4.45" length="7.51" shape="0.64,52.81 1.75,50.77 2.97,50.02 4.31,50.54 5.76,52.35"/>
    </edge>
    <edge id=":V0004_3" function="internal">
        <lane id=":V0004_3_0" index="0" speed="9.51" length="42.75" shape="20.03,59.18 35.27,63.22 40.65,63.57 36.14,60.24 21.76,53.23"/>
    </edge>
    <edge id=":V0004_4" function="internal">
        <lane id=":V0004_4_0" index="0" speed="7.37" length="15.91" shape="20.03,59.18 14.09,57.28 9.77,55.50 7.09,53.85 6.04,52.32"/>
        <lane id=":V0004_4_1" index="1" speed="7.94" length="18.67" shape="20.92,56.11 12.90,53.89 7.22,52.56 3.86,52.14 2.84,52.61"/>
    </edge>
    <edge id=":V0004_6" function="internal">
        <lane id=":V0004_6_0" index="0" speed="6.40" length="13.85" shape="21.82,53.04 15.67,51.42 11.53,50.71 9.38,50.91 9.23,52.03"/>
    </edge>
    <edge id=":V0004_7" function="internal">
        <lane id=":V0004_7_0" index="0" speed="5.41" length="10.81" shape="22.33,48.56 18.70,49.06 17.40,50.00 18.42,51.39 21.76,53.23"/>
    </edge>
    <edge id=":V0004_8" function="internal">
        <lane id=":V0004_8_0" index="0" speed="8.46" length="17.25" shape="22.33,48.56 15.03,49.15 9.89,49.98 6.89,51.03 6.04,52.32"/>
        <lane id=":V0004_8_1" index="1" speed="9.52" length="22.14" shape="22.15,45.37 13.33,46.25 7.18,47.75 3.68,49.87 2.84,52.61"/>
    </edge>
    <edge id=":V0004_10" function="internal">
        <lane id=":V0004_10_0" index="0" speed="8.23" length="20.11" shape="22.15,45.37 13.79,46.22 8.28,47.67 5.60,49.71 5.76,52.35"/>
    </edge>
    <edge id=":V0006_0" function="internal">
        <lane id=":V0006_0_0" index="0" speed="10.14" length="16.60" shape="784.64,268.22 783.71,270.17 781.12,272.23 776.86,274.40 770.93,276.69"/>
    </edge>
    <edge id=":V0006_1" function="internal">
        <lane id=":V0006_1_0" index="0" speed="14.00" length="92.07" shape="784.64,268.22 777.31,271.47 757.91,269.75 729.40,264.26 694.78,256.19"/>
        <lane id=":V0006_1_1" index="1" speed="14.00" length="88.48" shape="781.44,268.06 774.48,269.41 755.84,266.69 728.35,260.86 694.83,252.91"/>
    </edge>
    <edge id=":V0006_3" function="internal">
        <lane id=":V0006_3_0" index="0" speed="16.88" length="78.72" shape="781.44,268.06 775.26,269.36 758.77,266.42 734.51,260.27 705.04,251.93"/>
    </edge>
    <edge id=":V0006_4" function="internal">
        <lane id=":V0006_4_0" index="0" speed="9.97" length="45.67" shape="694.55,269.88 711.01,269.33 716.52,267.41 711.09,264.12 694.72,259.47"/>
    </edge>
    <edge id=":V0006_5" function="internal">
        <lane id=":V0006_5_0" index="0" speed="12.56" length="72.53" shape="694.55,269.88 722.82,268.92 733.99,265.61 728.07,259.94 705.04,251.93"/>
    </edge>
    <edge id=":V0006_6" function="internal">
        <lane id=":V0006_6_0" index="0" speed="15.71" length="111.99" shape="694.55,269.88 716.20,242.94 736.14,235.09 754.39,246.34 770.93,276.69"/>
    </edge>
    <edge id=":V0006_7" function="internal">
        <lane id=":V0006_7_0" index="0" speed="11.50" length="78.27" shape="770.59,275.59 766.24,274.14 752.15,270.43 728.33,264.44 694.78,256.19"/>
    </edge>
    <edge id=":V0006_8" function="internal">
        <lane id=":V0006_8_0" index="0" speed="13.88" length="70.24" shape="770.59,275.59 768.41,272.95 756.76,268.13 735.63,261.12 705.04,251.93"/>
    </edge>
    <edge id=":V0006_9" function="internal">
        <lane id=":V0006_9_0" index="0" speed="3.98" length="5.54" shape="770.59,275.59 768.85,276.72 768.33,277.28 769.02,277.27 770.93,276.69"/>
    </edge>
    <edge id=":V0007_0" function="internal">
        <lane id=":V0007_0_0" index="0" speed="5.49" length="10.82" shape="103.25,655.02 104.15,658.57 105.32,659.86 106.78,658.90 108.52,655.68"/>
        <lane id=":V0007_0_1" index="1" speed="6.71" length="17.08" shape="103.25,655.02 104.69,660.85 106.53,663.12 108.79,661.82 111.45,656.96"/>
    </edge>
    <edge id=":V0007_2" function="internal">
        <lane id=":V0007_2_0" index="0" speed="5.88" length="12.45" shape="103.25,655.02 104.30,659.09 105.71,660.65 107.49,659.67 109.64,656.17"/>
        <lane id=":V0007_2_1" index="1" speed="7.00" length="18.39" shape="103.25,655.02 104.81,661.23 106.89,663.70 109.47,662.44 112.58,657.45"/>
    </edge>
    <edge id=":V0007_4" function="internal">
        <lane id=":V0007_4_0" index="0" speed="7.77" length="19.64" shape="103.25,655.02 104.99,661.62 107.55,665.03 110.93,665.25 115.14,662.28"/>
        <lane id=":V0007_4_1" index="1" speed="8.51" length="23.83" shape="103.25,655.02 105.36,663.22 108.42,667.54 112.43,667.99 117.39,664.56"/>
    </edge>
    <edge id=":V0007_6" function="internal">
        <lane id=":V0007_6_0" index="0" speed="9.78" length="28.07" shape="100.09,655.53 102.53,665.21 106.11,671.02 110.82,672.96 116.67,671.02"/>
    </edge>
    <edge id=":V0008_0" function="internal">
        <lane id=":V0008_0_0" index="0" speed="5.41" length="9.74" shape="779.67,10.77 781.61,8.38 781.82,6.74 780.30,5.85 777.05,5.71"/>
        <lane id=":V0008_0_1" index="1" speed="6.51" length="14.87" shape="779.67,10.77 782.89,6.91 783.50,4.24 781.49,2.77 776.87,2.51"/>
    </edge>
    <edge id=":V0008_2" function="internal">
        <lane id=":V0008_2_0" index="0" speed="8.24" length="24.68" shape="779.67,10.77 785.52,7.39 791.17,7.81 795.36,11.52 796.79,18.02"/>
        <lane id=":V0008_2_1" index="1" speed="7.60" length="20.74" shape="779.67,10.77 784.51,8.09 789.11,8.78 792.46,12.24 793.59,17.87"/>
    </edge>
    <edge id=":V0008_4" function="internal">
        <lane id=":V0008_4_0" index="0" speed="5.25" length="11.00" shape="779.67,10.77 782.78,9.41 784.88,9.63 785.95,11.44 786.01,14.84"/>
    </edge>
    <edge id=":V0011_0" function="internal">
        <lane id=":V0011_0_0" index="0" speed="6.12" length="9.06" shape="240.86,525.47 242.56,527.39 244.37,528.16 246.31,527.79 248.37,526.27"/>
        <lane id=":V0011_0_1" index="1" speed="7.69" length="15.01" shape="238.19,527.23 240.99,530.40 244.00,531.68 247.21,531.06 250.61,528.55"/>
    </edge>
    <edge id=":V0011_2" function="internal">
        <lane id=":V0011_2_0" index="0" speed="20.50" length="19.08" shape="238.19,527.23 248.65,543.18"/>
    </edge>
    <edge id=":V0011_3" function="internal">
        <lane id=":V0011_3_0" index="0" speed="15.50" length="16.73" shape="238.90,540.11 242.06,536.29 243.63,533.19 245.21,530.09 248.37,526.27"/>
        <lane id=":V0011_3_1" index="1" speed="15.50" length="16.73" shape="241.15,542.39 244.31,538.57 245.88,535.47 247.46,532.37 250.61,528.55"/>
        <lane id=":V0011_3_2" index="2" speed="15.50" length="16.73" shape="241.15,542.39 252.86,530.83"/>
    </edge>
    <edge id=":V0011_6" function="internal">
        <lane id=":V0011_6_0" index="0" speed="6.12" length="9.06" shape="241.15,542.39 243.21,540.87 245.14,540.50 246.96,541.27 248.65,543.18"/>
    </edge>
    <edge id=":V0012_0" function="internal">
        <lane id=":V0012_0_0" index="0" speed="18.00" length="18.39" shape="181.87,315.24 181.83,309.83 182.56,306.12 183.29,302.41 183.25,297.00"/>
        <lane id=":V0012_0_1" index="1" speed="18.00" length="18.39" shape="185.05,314.92 185.01,309.51 185.74,305.80 186.47,302.09 186.43,296.68"/>
    </edge>
    <edge id=":V0012_2" function="internal">
        <lane id=":V0012_2_0" index="0" speed="5.77" length="9.16" shape="188.24,314.60 188.33,311.91 189.28,310.28 191.08,309.73 193.73,310.26"/>
    </edge>
    <edge id=":V0012_3" function="internal">
        <lane id=":V0012_3_0" index="0" speed="5.88" length="9.56" shape="177.22,301.16 180.10,301.77 182.07,301.28 183.11,299.69 183.25,297.00"/>
        <lane id=":V0012_3_1" index="1" speed="7.54" length="16.61" shape="176.17,304.19 181.09,305.20 184.44,304.28 186.22,301.44 186.43,296.68"/>
    </edge>
    <edge id=":V0012_5" function="internal">
        <lane id=":V0012_5_0" index="0" speed="11.50" length="18.76" shape="176.17,304.19 181.59,305.53 185.47,305.71 189.36,305.89 194.78,307.24"/>
        <lane id=":V0012_5_1" index="1" speed="11.50" length="18.76" shape="176.17,304.19 193.73,310.26"/>
    </edge>
    <edge id=":V0013_0" function="internal">
        <lane id=":V0013_0_0" index="0" speed="10.78" length="17.48" shape="291.45,261.13 298.22,260.97 303.28,260.41 306.62,259.44 308.25,258.06"/>
    </edge>
    <edge id=":V0013_1" function="internal">
        <lane id=":V0013_1_0" index="0" speed="19.50" length="17.58" shape="291.43,264.33 297.11,264.86 301.44,265.99 305.07,267.11 308.64,267.63"/>
    </edge>
    <edge id=":V0013_2" function="internal">
        <lane id=":V0013_2_0" index="0" speed="13.00" length="20.04" shape="294.24,272.10 297.96,266.78 302.06,263.43 305.75,260.90 308.25,258.06"/>
    </edge>
    <edge id=":V0013_3" function="internal">
        <lane id=":V0013_3_0" index="0" speed="9.59" length="13.67" shape="297.12,273.51 298.93,270.92 301.45,269.08 304.69,267.98 308.64,267.63"/>
    </edge>
    <edge id=":V0014_0" function="internal">
        <lane id=":V0014_0_0" index="0" speed="6.28" length="6.77" shape="665.98,240.56 664.04,240.22 662.40,240.40 661.05,241.12 660.02,242.37"/>
    </edge>
    <edge id=":V0014_1" function="internal">
        <lane id=":V0014_1_0" index="0" speed="21.50" length="16.13" shape="665.98,240.56 650.49,236.05"/>
    </edge>
    <edge id=":V0014_2" function="internal">
        <lane id=":V0014_2_0" index="0" speed="19.50" length="8.42" shape="661.24,233.96 660.44,236.30 660.63,238.17 660.81,240.03 660.02,242.37"/>
        <lane id=":V0014_2_1" index="1" speed="19.50" length="8.42" shape="658.48,232.34 657.68,234.69 657.87,236.55 658.05,238.41 657.25,240.75"/>
        <lane id=":V0014_2_2" index="2" speed="19.50" length="8.42" shape="658.48,232.34 654.49,239.13"/>
    </edge>
    <edge id=":V0014_5" function="internal">
        <lane id=":V0014_5_0" index="0" speed="7.35" length="9.58" shape="658.48,232.34 656.85,234.50 654.97,235.84 652.85,236.36 650.49,236.05"/>
    </edge>
    <edge id=":V0015_0" function="internal">
        <lane id=":V0015_0_0" index="0" speed="5.91" length="5.86" shape="215.29,434.73 215.85,440.57"/>
    </edge>
    <edge id=":V0015_1" function="internal">
        <lane id=":V0015_1_0" index="0" speed="23.50" length="7.97" shape="215.29,434.73 216.82,436.51 218.46,437.23 220.09,437.95 221.62,439.73"/>
        <lane id=":V0015_1_1" index="1" speed="23.50" length="7.97" shape="212.48,436.25 214.00,438.03 215.64,438.75 217.28,439.47 218.80,441.25"/>
        <lane id=":V0015_1_2" index="2" speed="23.50" length="7.97" shape="212.48,436.25 215.98,442.76"/>
    </edge>
    <edge id=":V0015_4" function="internal">
        <lane id=":V0015_4_0" index="0" speed="14.00" length="6.12" shape="209.91,442.02 215.85,440.57"/>
        <lane id=":V0015_4_1" index="1" speed="14.00" length="6.12" shape="210.67,445.13 216.61,443.67"/>
    </edge>
    <edge id=":V0015_6" function="internal">
        <lane id=":V0015_6_0" index="0" speed="7.17" length="9.01" shape="210.67,445.13 218.80,441.25"/>
        <lane id=":V0015_6_1" index="1" speed="5.89" length="5.82" shape="210.67,445.13 215.98,442.76"/>
    </edge>
    <edge id=":V0016_0" function="internal">
        <lane id=":V0016_0_0" index="0" speed="17.00" length="29.59" shape="612.09,331.60 606.90,334.60 599.89,339.92 593.30,345.74 589.34,350.25"/>
    </edge>
    <edge id=":V0016_1" function="internal">
        <lane id=":V0016_1_0" index="0" speed="19.00" length="29.34" shape="612.09,331.60 608.11,334.03 602.92,338.15 595.99,342.88 586.78,347.12"/>
        <lane id=":V0016_1_1" index="1" speed="19.00" length="29.34" shape="612.09,331.60 607.92,333.57 602.31,336.67 595.00,340.36 585.73,344.10"/>
        <lane id=":V0016_1_2" index="2" speed="19.00" length="29.34" shape="612.09,331.60 584.69,341.07"/>
    </edge>
    <edge id=":V0016_4" function="internal">
        <lane id=":V0016_4_0" index="0" speed="11.50" length="29.82" shape="609.53,328.47 603.56,336.67 597.57,342.54 592.51,346.82 589.34,350.25"/>
    </edge>
    <edge id=":V0016_5" function="internal">
        <lane id=":V0016_5_0" index="0" speed="13.50" length="28.20" shape="606.77,326.85 602.39,333.87 598.49,338.21 593.48,341.18 585.73,344.10"/>
        <lane id=":V0016_5_1" index="1" speed="13.50" length="25.90" shape="604.01,325.24 599.98,331.68 596.41,335.66 591.80,338.39 584.69,341.07"/>
    </edge>
    <edge id=":V0017_0" function="internal">
        <lane id=":V0017_0_0" index="0" speed="5.32" length="8.20" shape="189.13,446.59 190.93,448.84 192.51,449.77 193.87,449.37 195.02,447.64"/>
    </edge>
    <edge id=":V0017_1" function="internal">
        <lane id=":V0017_1_0" index="0" speed="18.00" length="17.90" shape="189.13,446.59 192.44,450.73 195.31,453.09 198.17,455.45 201.48,459.59"/>
        <lane id=":V0017_1_1" index="1" speed="18.00" length="17.90" shape="186.45,448.34 189.77,452.48 192.63,454.84 195.49,457.20 198.81,461.34"/>
        <lane id=":V0017_1_2" index="2" speed="18.00" length="17.90" shape="186.45,448.34 196.13,463.10"/>
    </edge>
    <edge id=":V0017_4" function="internal">
        <lane id=":V0017_4_0" index="0" speed="15.00" length="20.22" shape="189.93,467.47 197.95,448.91"/>
        <lane id=":V0017_4_1" index="1" speed="15.00" length="20.22" shape="192.87,468.74 200.89,450.18"/>
    </edge>
    <edge id=":V0017_6" function="internal">
        <lane id=":V0017_6_0" index="0" speed="5.92" length="10.53" shape="192.87,468.74 194.85,464.56 196.49,461.93 197.81,460.86 198.81,461.34"/>
        <lane id=":V0017_6_1" index="1" speed="4.87" length="6.64" shape="192.87,468.74 193.47,467.35 194.44,465.26 195.44,463.50 196.13,463.10"/>
    </edge>
    <edge id=":V0018_0" function="internal">
        <lane id=":V0018_0_0" index="0" speed="7.42" length="11.70" shape="268.18,572.96 269.97,574.69 272.31,575.29 275.21,574.74 278.66,573.06"/>
    </edge>
    <edge id=":V0018_1" function="internal">
        <lane id=":V0018_1_0" index="0" speed="22.00" length="11.44" shape="268.18,572.96 270.26,575.22 272.41,576.49 274.64,577.88 276.97,580.53"/>
        <lane id=":V0018_1_1" index="1" speed="22.00" length="11.44" shape="268.18,572.96 274.29,582.28"/>
    </edge>
    <edge id=":V0018_3" function="internal">
        <lane id=":V0018_3_0" index="0" speed="20.00" length="14.23" shape="266.48,580.42 278.66,573.06"/>
    </edge>
    <edge id=":V0018_4" function="internal">
        <lane id=":V0018_4_0" index="0" speed="6.61" length="9.08" shape="266.48,580.42 268.74,579.47 270.79,579.46 272.64,580.40 274.29,582.28"/>
    </edge>
    <edge id=":V0019_0" function="internal">
        <lane id=":V0019_0_0" index="0" speed="22.00" length="21.53" shape="572.13,226.22 565.61,224.12 560.37,221.70 556.04,219.51 552.25,218.07"/>
    </edge>
    <edge id=":V0019_1" function="internal">
        <lane id=":V0019_1_0" index="0" speed="5.01" length="6.99" shape="572.89,223.12 570.09,222.28 568.37,221.42 567.73,220.51 568.16,219.57"/>
    </edge>
    <edge id=":V0019_2" function="internal">
        <lane id=":V0019_2_0" index="0" speed="5.64" length="9.27" shape="554.03,224.53 555.75,222.31 556.03,220.50 554.86,219.09 552.25,218.07"/>
    </edge>
    <edge id=":V0019_3" function="internal">
        <lane id=":V0019_3_0" index="0" speed="8.50" length="13.53" shape="556.28,226.80 565.91,217.29"/>
        <lane id=":V0019_3_1" index="1" speed="8.50" length="13.53" shape="558.53,229.08 568.16,219.57"/>
    </edge>
    <edge id=":V0020_0" function="internal">
        <lane id=":V0020_0_0" index="0" speed="16.09" length="22.29" shape="129.05,274.56 132.10,280.19 134.89,284.24 138.56,287.24 144.26,289.76"/>
        <lane id=":V0020_0_1" index="1" speed="16.87" length="24.56" shape="126.23,276.08 129.56,281.94 132.96,286.51 137.24,290.03 143.22,292.78"/>
    </edge>
    <edge id=":V0020_2" function="internal">
        <lane id=":V0020_2_0" index="0" speed="16.00" length="24.38" shape="126.23,276.08 129.80,281.66 133.39,286.00 136.98,290.34 140.55,295.92"/>
        <lane id=":V0020_2_1" index="1" speed="16.00" length="24.38" shape="126.23,276.08 137.73,297.43"/>
    </edge>
    <edge id=":V0020_4" function="internal">
        <lane id=":V0020_4_0" index="0" speed="14.00" length="23.29" shape="123.57,279.21 130.10,282.00 134.49,284.68 138.58,287.27 144.26,289.76"/>
        <lane id=":V0020_4_1" index="1" speed="14.00" length="23.29" shape="122.52,282.24 129.05,285.03 133.44,287.71 137.54,290.29 143.22,292.78"/>
    </edge>
    <edge id=":V0020_6" function="internal">
        <lane id=":V0020_6_0" index="0" speed="12.00" length="21.13" shape="121.47,285.26 127.40,287.33 131.42,289.29 134.54,292.29 137.73,297.43"/>
    </edge>
    <edge id=":V0021_0" function="internal">
        <lane id=":V0021_0_0" index="0" speed="6.88" length="9.25" shape="260.43,329.95 262.65,330.31 264.61,329.79 266.34,328.37 267.81,326.06"/>
        <lane id=":V0021_0_1" index="1" speed="8.31" length="13.96" shape="259.38,332.97 262.85,333.58 265.89,332.87 268.50,330.83 270.68,327.47"/>
    </edge>
    <edge id=":V0021_2" function="internal">
        <lane id=":V0021_2_0" index="0" speed="10.50" length="16.95" shape="259.38,332.97 264.29,334.14 267.82,334.20 271.35,334.26 276.26,335.42"/>
        <lane id=":V0021_2_1" index="1" speed="10.50" length="16.95" shape="259.38,332.97 275.21,338.45"/>
    </edge>
    <edge id=":V0021_4" function="internal">
        <lane id=":V0021_4_0" index="0" speed="16.00" length="14.31" shape="264.39,340.32 270.68,327.47"/>
        <lane id=":V0021_4_1" index="1" speed="16.00" length="14.31" shape="267.26,341.73 273.56,328.87"/>
    </edge>
    <edge id=":V0021_6" function="internal">
        <lane id=":V0021_6_0" index="0" speed="6.98" length="9.56" shape="267.26,341.73 268.70,339.59 270.51,338.33 272.68,337.95 275.21,338.45"/>
    </edge>
    <edge id=":V0022_0" function="internal">
        <lane id=":V0022_0_0" index="0" speed="15.50" length="45.76" shape="192.35,419.41 187.77,373.88"/>
        <lane id=":V0022_0_1" index="1" speed="15.50" length="45.76" shape="195.53,419.09 190.95,373.56"/>
        <lane id=":V0022_0_2" index="2" speed="15.50" length="45.76" shape="198.72,418.77 194.14,373.24"/>
    </edge>
    <edge id=":V0022_3" function="internal">
        <lane id=":V0022_3_0" index="0" speed="5.54" length="3.14" shape="198.72,418.77 198.65,415.63"/>
    </edge>
    <edge id=":V0022_8" function="internal">
        <lane id=":V0022_8_0" index="0" speed="5.54" length="8.74" shape="198.65,415.63 198.64,415.09 199.39,413.97 200.99,415.42 203.42,419.43"/>
    </edge>
    <edge id=":V0022_4" function="internal">
        <lane id=":V0022_4_0" index="0" speed="5.74" length="12.92" shape="183.27,375.26 185.69,379.15 187.25,380.21 187.94,378.46 187.77,373.88"/>
        <lane id=":V0022_4_1" index="1" speed="8.43" length="30.17" shape="180.45,376.78 186.10,385.85 189.73,388.33 191.35,384.24 190.95,373.56"/>
    </edge>
    <edge id=":V0022_6" function="internal">
        <lane id=":V0022_6_0" index="0" speed="16.50" length="48.49" shape="180.45,376.78 206.24,417.91"/>
        <lane id=":V0022_6_1" index="1" speed="16.50" length="48.49" shape="180.45,376.78 203.42,419.43"/>
    </edge>
    <edge id=":V0023_0" function="internal">
        <lane id=":V0023_0_0" index="0" speed="14.50" length="18.34" shape="180.83,272.97 178.99,254.73"/>
        <lane id=":V0023_0_1" index="1" speed="14.50" length="18.34" shape="184.01,272.65 182.18,254.41"/>
    </edge>
    <edge id=":V0023_2" function="internal">
        <lane id=":V0023_2_0" index="0" speed="7.12" length="11.93" shape="184.01,272.65 184.00,268.74 184.87,265.94 186.61,264.28 189.23,263.73"/>
        <lane id=":V0023_2_1" index="1" speed="6.29" length="9.04" shape="184.01,272.65 184.12,270.14 185.02,268.35 186.72,267.28 189.21,266.93"/>
    </edge>
    <edge id=":V0023_4" function="internal">
        <lane id=":V0023_4_0" index="0" speed="6.29" length="9.04" shape="173.79,260.44 176.28,260.10 177.98,259.03 178.88,257.24 178.99,254.73"/>
        <lane id=":V0023_4_1" index="1" speed="7.82" length="14.61" shape="173.77,263.64 177.80,263.09 180.54,261.36 182.00,258.47 182.18,254.41"/>
    </edge>
    <edge id=":V0023_6" function="internal">
        <lane id=":V0023_6_0" index="0" speed="14.50" length="16.16" shape="173.75,266.84 178.53,265.87 181.50,263.69 184.48,261.51 189.25,260.53"/>
        <lane id=":V0023_6_1" index="1" speed="14.50" length="16.16" shape="173.75,266.84 178.39,266.37 181.49,265.29 184.59,264.21 189.23,263.73"/>
        <lane id=":V0023_6_2" index="2" speed="14.50" length="16.16" shape="173.75,266.84 189.21,266.93"/>
    </edge>
    <edge id=":V0024_0" function="internal">
        <lane id=":V0024_0_0" index="0" speed="6.60" length="13.07" shape="645.65,260.54 643.88,264.49 643.84,267.32 645.54,269.03 648.98,269.62"/>
    </edge>
    <edge id=":V0024_1" function="internal">
        <lane id=":V0024_1_0" index="0" speed="10.50" length="19.33" shape="645.65,260.54 643.20,265.71 642.21,269.58 641.21,273.45 638.76,278.63"/>
        <lane id=":V0024_1_1" index="1" speed="10.50" length="19.33" shape="642.89,258.92 640.44,264.10 639.45,267.96 638.45,271.83 636.00,277.01"/>
        <lane id=":V0024_1_2" index="2" speed="10.50" length="19.33" shape="642.89,258.92 633.24,275.39"/>
    </edge>
    <edge id=":V0024_4" function="internal">
        <lane id=":V0024_4_0" index="0" speed="16.50" length="20.34" shape="629.93,263.11 636.45,264.14 641.35,266.37 645.31,268.60 648.98,269.62"/>
    </edge>
    <edge id=":V0024_5" function="internal">
        <lane id=":V0024_5_0" index="0" speed="7.40" length="16.81" shape="629.91,266.31 634.91,267.00 637.59,269.02 637.95,272.35 636.00,277.01"/>
        <lane id=":V0024_5_1" index="1" speed="5.67" length="9.24" shape="629.89,269.51 632.64,269.89 634.11,271.00 634.31,272.83 633.24,275.39"/>
    </edge>
    <edge id=":V0025_0" function="internal">
        <lane id=":V0025_0_0" index="0" speed="17.50" length="13.26" shape="365.18,156.33 361.30,155.72 358.53,156.06 355.76,156.40 351.88,155.79"/>
        <lane id=":V0025_0_1" index="1" speed="17.50" length="13.26" shape="366.07,153.25 362.20,152.65 359.42,152.98 356.65,153.32 352.78,152.72"/>
        <lane id=":V0025_0_2" index="2" speed="17.50" length="13.26" shape="366.07,153.25 353.67,149.64"/>
    </edge>
    <edge id=":V0025_3" function="internal">
        <lane id=":V0025_3_0" index="0" speed="6.17" length="9.05" shape="366.07,153.25 363.76,152.20 362.47,150.69 362.22,148.73 363.00,146.30"/>
    </edge>
    <edge id=":V0025_4" function="internal">
        <lane id=":V0025_4_0" index="0" speed="6.17" length="9.05" shape="354.95,162.74 355.73,160.32 355.48,158.35 354.20,156.84 351.88,155.79"/>
    </edge>
    <edge id=":V0025_5" function="internal">
        <lane id=":V0025_5_0" index="0" speed="18.00" length="18.30" shape="354.95,162.74 363.00,146.30"/>
    </edge>
    <edge id=":V0026_0" function="internal">
        <lane id=":V0026_0_0" index="0" speed="17.00" length="31.48" shape="363.11,407.74 368.32,405.64 375.56,401.67 383.24,396.61 389.71,391.24"/>
    </edge>
    <edge id=":V0026_1" function="internal">
        <lane id=":V0026_1_0" index="0" speed="18.00" length="32.52" shape="363.11,407.74 368.60,405.88 376.66,402.77 385.64,399.43 393.85,396.90"/>
        <lane id=":V0026_1_1" index="1" speed="18.00" length="32.52" shape="363.11,407.74 394.62,400.01"/>
    </edge>
    <edge id=":V0026_3" function="internal">
        <lane id=":V0026_3_0" index="0" speed="22.00" length="32.33" shape="365.01,411.13 372.72,404.92 379.82,401.00 386.25,397.75 391.96,393.51"/>
    </edge>
    <edge id=":V0026_4" function="internal">
        <lane id=":V0026_4_0" index="0" speed="23.00" length="31.75" shape="367.25,413.40 374.55,406.71 380.92,402.09 387.10,399.00 393.85,396.90"/>
        <lane id=":V0026_4_1" index="1" speed="23.00" length="30.06" shape="369.50,415.68 376.50,409.18 382.37,404.84 388.08,402.00 394.62,400.01"/>
    </edge>
    <edge id=":V0027_0" function="internal">
        <lane id=":V0027_0_0" index="0" speed="6.40" length="9.04" shape="285.58,558.51 287.06,560.51 288.81,561.52 290.84,561.54 293.13,560.57"/>
        <lane id=":V0027_0_1" index="1" speed="7.91" length="14.39" shape="282.76,560.02 285.12,563.21 287.91,564.83 291.13,564.86 294.79,563.31"/>
    </edge>
    <edge id=":V0027_2" function="internal">
        <lane id=":V0027_2_0" index="0" speed="19.00" length="15.61" shape="279.94,561.54 283.00,565.12 286.29,566.58 289.57,568.03 292.63,571.61"/>
        <lane id=":V0027_2_1" index="1" speed="19.00" length="15.61" shape="279.94,561.54 282.50,565.24 284.88,567.34 287.26,569.43 289.82,573.13"/>
        <lane id=":V0027_2_2" index="2" speed="19.00" length="15.61" shape="279.94,561.54 287.00,574.65"/>
    </edge>
    <edge id=":V0027_5" function="internal">
        <lane id=":V0027_5_0" index="0" speed="15.50" length="18.10" shape="279.44,572.59 282.29,570.28 284.97,567.37 288.31,564.07 293.13,560.57"/>
        <lane id=":V0027_5_1" index="1" speed="15.50" length="18.10" shape="279.44,572.59 294.79,563.31"/>
    </edge>
    <edge id=":V0027_7" function="internal">
        <lane id=":V0027_7_0" index="0" speed="7.23" length="11.82" shape="279.44,572.59 282.94,570.89 285.84,570.42 288.13,571.17 289.82,573.13"/>
        <lane id=":V0027_7_1" index="1" speed="6.40" length="9.04" shape="279.44,572.59 281.74,571.61 283.76,571.63 285.52,572.64 287.00,574.65"/>
    </edge>
    <edge id=":V0028_0" function="internal">
        <lane id=":V0028_0_0" index="0" speed="5.74" length="12.37" shape="563.22,394.79 561.35,398.63 561.38,400.55 563.30,400.55 567.11,398.63"/>
    </edge>
    <edge id=":V0028_1" function="internal">
        <lane id=":V0028_1_0" index="0" speed="8.50" length="21.57" shape="563.22,394.79 561.60,398.54 560.13,403.23 558.18,408.72 555.14,414.90"/>
        <lane id=":V0028_1_1" index="1" speed="8.50" length="21.57" shape="563.22,394.79 552.38,413.28"/>
    </edge>
    <edge id=":V0028_3" function="internal">
        <lane id=":V0028_3_0" index="0" speed="15.00" length="21.71" shape="547.12,406.98 553.25,403.86 558.72,401.84 563.39,400.30 567.11,398.63"/>
    </edge>
    <edge id=":V0028_4" function="internal">
        <lane id=":V0028_4_0" index="0" speed="5.56" length="4.35" shape="548.77,409.72 552.31,407.94 552.70,407.94"/>
    </edge>
    <edge id=":V0028_5" function="internal">
        <lane id=":V0028_5_0" index="0" speed="5.56" length="7.12" shape="552.70,407.94 554.08,407.94 554.11,409.72 552.38,413.28"/>
    </edge>
    <edge id=":V0029_0" function="internal">
        <lane id=":V0029_0_0" index="0" speed="4.90" length="6.58" shape="201.59,459.76 202.29,459.38 203.33,457.66 204.36,455.62 205.00,454.27"/>
    </edge>
    <edge id=":V0029_1" function="internal">
        <lane id=":V0029_1_0" index="0" speed="21.50" length="18.78" shape="198.92,461.51 209.22,477.22"/>
        <lane id=":V0029_1_1" index="1" speed="21.50" length="18.78" shape="196.24,463.27 206.54,478.97"/>
    </edge>
    <edge id=":V0029_3" function="internal">
        <lane id=":V0029_3_0" index="0" speed="13.00" length="25.02" shape="196.94,477.99 199.28,472.07 200.55,466.98 202.03,461.45 205.00,454.27"/>
        <lane id=":V0029_3_1" index="1" speed="13.00" length="25.02" shape="199.81,479.39 202.15,473.48 203.42,468.38 204.90,462.86 207.87,455.67"/>