<configuration><input><net-file value="24.net.xml" /><route-files value="24.rou.xml" /></input><time><begin value="0" /></time></configuration>