<configuration><input><net-file value="sim_2.net.xml" /><route-files value="sim_2.rou.xml" /></input><time><begin value="0" /></time></configuration>