<?xml version="1.0" encoding="UTF-8"?>

<!-- generated on 2023-06-26 02:05:34 by Eclipse SUMO netconvert Version 1.16.0
<configuration xmlns:xsi="http://www.w3.org/2001/XMLSchema-instance" xsi:noNamespaceSchemaLocation="http://sumo.dlr.de/xsd/netconvertConfiguration.xsd">

    <input>
        <node-files value="data/simulationConfigurations/tests/7\7.nod.xml"/>
        <edge-files value="data/simulationConfigurations/tests/7\7.edg.xml"/>
    </input>

    <output>
        <output-file value="data/simulationConfigurations/tests/7\7.net.xml"/>
    </output>

</configuration>
-->

<net version="1.16" junctionCornerDetail="5" limitTurnSpeed="5.50" xmlns:xsi="http://www.w3.org/2001/XMLSchema-instance" xsi:noNamespaceSchemaLocation="http://sumo.dlr.de/xsd/net_file.xsd">

    <location netOffset="-8.89,-23.31" convBoundary="0.00,0.00,962.69,790.85" origBoundary="8.89,23.31,971.58,814.15" projParameter="!"/>

    <edge id=":V0002_0" function="internal">
        <lane id=":V0002_0_0" index="0" speed="13.00" length="43.01" shape="711.53,785.35 703.51,790.79 694.05,793.74 683.15,794.20 670.81,792.17"/>
    </edge>
    <edge id=":V0002_1" function="internal">
        <lane id=":V0002_1_0" index="0" speed="14.00" length="37.60" shape="709.36,782.99 703.15,786.60 695.11,787.70 685.24,786.30 673.54,782.39"/>
    </edge>
    <edge id=":V0002_2" function="internal">
        <lane id=":V0002_2_0" index="0" speed="12.21" length="38.86" shape="704.05,780.40 701.07,788.19 694.21,791.59 684.15,791.56 671.59,789.07"/>
        <lane id=":V0002_2_1" index="1" speed="11.81" length="36.27" shape="704.05,780.40 701.17,786.54 694.39,788.95 684.51,788.48 672.37,785.96"/>
    </edge>
    <edge id=":V0002_4" function="internal">
        <lane id=":V0002_4_0" index="0" speed="10.62" length="31.95" shape="700.85,780.16 698.22,785.89 692.17,787.50 683.63,786.00 673.54,782.39"/>
    </edge>
    <edge id=":V0003_0" function="internal">
        <lane id=":V0003_0_0" index="0" speed="5.83" length="9.13" shape="502.16,138.56 499.96,137.05 498.08,136.82 496.51,137.89 495.25,140.25"/>
    </edge>
    <edge id=":V0003_1" function="internal">
        <lane id=":V0003_1_0" index="0" speed="9.00" length="29.89" shape="504.32,136.19 496.56,129.50 489.78,124.46 484.12,121.15 479.74,119.63"/>
    </edge>
    <edge id=":V0003_2" function="internal">
        <lane id=":V0003_2_0" index="0" speed="8.13" length="20.98" shape="506.48,133.83 501.09,128.60 497.04,123.73 495.46,119.87 497.45,117.67"/>
    </edge>
    <edge id=":V0003_3" function="internal">
        <lane id=":V0003_3_0" index="0" speed="5.57" length="9.38" shape="481.75,125.80 483.51,123.52 483.76,121.74 482.50,120.44 479.74,119.63"/>
    </edge>
    <edge id=":V0003_4" function="internal">
        <lane id=":V0003_4_0" index="0" speed="17.50" length="17.97" shape="481.75,125.80 486.16,122.08 490.13,119.89 493.84,118.63 497.45,117.67"/>
    </edge>
    <edge id=":V0003_5" function="internal">
        <lane id=":V0003_5_0" index="0" speed="6.84" length="18.83" shape="484.01,128.06 487.95,126.49 491.15,128.87 492.83,133.61 492.25,139.15"/>
        <lane id=":V0003_5_1" index="1" speed="6.23" length="15.28" shape="484.01,128.06 487.00,126.92 489.09,129.19 489.95,133.38 489.24,138.05"/>
    </edge>
    <edge id=":V0004_0" function="internal">
        <lane id=":V0004_0_0" index="0" speed="5.70" length="9.21" shape="188.61,297.90 185.90,297.40 184.14,297.99 183.33,299.65 183.47,302.40"/>
    </edge>
    <edge id=":V0004_1" function="internal">
        <lane id=":V0004_1_0" index="0" speed="6.29" length="14.03" shape="188.61,297.90 183.38,295.81 180.85,293.85 181.02,292.01 183.89,290.29"/>
    </edge>
    <edge id=":V0005_0" function="internal">
        <lane id=":V0005_0_0" index="0" speed="15.46" length="88.61" shape="837.18,23.62 925.43,15.63"/>
    </edge>
    <edge id=":V0005_1" function="internal">
        <lane id=":V0005_1_0" index="0" speed="8.99" length="35.67" shape="837.18,23.62 854.77,54.65"/>
        <lane id=":V0005_1_1" index="1" speed="8.60" length="32.46" shape="837.18,23.62 853.16,51.88"/>
    </edge>
    <edge id=":V0005_3" function="internal">
        <lane id=":V0005_3_0" index="0" speed="10.50" length="87.66" shape="838.48,26.70 925.43,15.63"/>
        <lane id=":V0005_3_1" index="1" speed="10.50" length="83.94" shape="840.11,29.50 922.62,14.10"/>
    </edge>
    <edge id=":V0006_0" function="internal">
        <lane id=":V0006_0_0" index="0" speed="9.50" length="19.77" shape="276.55,746.75 272.71,748.46 268.27,750.56 263.07,751.56 256.93,749.99"/>
        <lane id=":V0006_0_1" index="1" speed="9.50" length="19.77" shape="276.55,746.75 272.83,747.96 268.71,748.98 263.96,748.98 258.37,747.13"/>
    </edge>
    <edge id=":V0006_2" function="internal">
        <lane id=":V0006_2_0" index="0" speed="11.44" length="32.72" shape="277.01,728.65 272.73,739.05 268.12,746.68 262.94,750.64 256.93,749.99"/>
        <lane id=":V0006_2_1" index="1" speed="10.48" length="27.27" shape="274.00,727.56 270.39,736.55 266.64,743.37 262.66,747.17 258.37,747.13"/>
    </edge>
    <edge id=":V0006_4" function="internal">
        <lane id=":V0006_4_0" index="0" speed="9.90" length="33.32" shape="268.83,727.12 269.87,737.54 268.66,746.24 264.56,751.10 256.93,749.99"/>
        <lane id=":V0006_4_1" index="1" speed="8.90" length="26.60" shape="265.68,727.71 266.84,736.23 266.57,743.55 264.04,747.81 258.37,747.13"/>
    </edge>
    <edge id=":V0007_0" function="internal">
        <lane id=":V0007_0_0" index="0" speed="2.96" length="2.07" shape="64.65,53.68 65.40,53.76 65.68,53.70 65.48,53.50 64.81,53.16"/>
    </edge>
    <edge id=":V0007_1" function="internal">
        <lane id=":V0007_1_0" index="0" speed="4.92" length="7.30" shape="64.65,53.68 62.20,53.54 60.85,54.10 60.61,55.34 61.48,57.27"/>
    </edge>
    <edge id=":V0008_0" function="internal">
        <lane id=":V0008_0_0" index="0" speed="6.50" length="10.82" shape="739.68,356.82 738.68,359.42 738.70,361.39 739.08,363.48 739.17,366.40"/>
        <lane id=":V0008_0_1" index="1" speed="6.50" length="10.82" shape="736.87,355.29 735.69,358.24 735.60,360.48 735.93,362.83 735.98,366.15"/>
        <lane id=":V0008_0_2" index="2" speed="6.50" length="10.82" shape="736.87,355.29 735.14,358.26 733.97,360.34 733.23,362.56 732.79,365.91"/>
    </edge>
    <edge id=":V0008_3" function="internal">
        <lane id=":V0008_3_0" index="0" speed="10.07" length="16.83" shape="731.21,352.86 734.97,355.20 737.55,358.24 738.95,361.97 739.17,366.40"/>
        <lane id=":V0008_3_1" index="1" speed="8.88" length="12.91" shape="729.87,355.76 732.76,357.56 734.73,359.89 735.81,362.76 735.98,366.15"/>
        <lane id=":V0008_3_2" index="2" speed="7.50" length="8.99" shape="728.54,358.67 730.54,359.92 731.92,361.55 732.67,363.54 732.79,365.91"/>
    </edge>
    <edge id=":V0010_0" function="internal">
        <lane id=":V0010_0_0" index="0" speed="10.50" length="61.70" shape="40.91,641.71 22.91,631.63 9.98,621.12 4.77,610.23 9.97,599.04"/>
        <lane id=":V0010_0_1" index="1" speed="10.50" length="55.38" shape="42.34,638.85 25.80,629.69 13.65,620.27 8.31,610.77 12.19,601.34"/>
    </edge>
    <edge id=":V0010_2" function="internal">
        <lane id=":V0010_2_0" index="0" speed="9.00" length="42.44" shape="42.34,638.85 37.81,633.14 44.41,628.45 57.18,625.77 71.18,626.09"/>
    </edge>
    <edge id=":V0010_3" function="internal">
        <lane id=":V0010_3_0" index="0" speed="10.00" length="83.89" shape="68.49,641.25 40.37,633.13 17.78,623.38 5.92,612.01 9.97,599.04"/>
        <lane id=":V0010_3_1" index="1" speed="10.00" length="76.80" shape="69.05,638.09 42.67,630.60 21.33,621.91 9.64,612.13 12.19,601.34"/>
    </edge>
    <edge id=":V0010_5" function="internal">
        <lane id=":V0010_5_0" index="0" speed="5.49" length="13.11" shape="69.61,634.93 66.69,632.13 65.98,629.73 67.48,627.71 71.18,626.09"/>
    </edge>
    <edge id=":V0010_6" function="internal">
        <lane id=":V0010_6_0" index="0" speed="6.48" length="18.05" shape="71.96,618.83 65.38,619.55 63.15,620.47 65.27,621.60 71.74,622.94"/>
    </edge>
    <edge id=":V0010_7" function="internal">
        <lane id=":V0010_7_0" index="0" speed="14.18" length="77.37" shape="71.73,615.64 44.50,616.73 20.56,615.29 6.76,609.89 9.97,599.04"/>
        <lane id=":V0010_7_1" index="1" speed="13.41" length="68.97" shape="71.51,612.45 46.22,613.62 24.20,612.89 11.01,609.17 12.19,601.34"/>
    </edge>
    <edge id=":V0010_9" function="internal">
        <lane id=":V0010_9_0" index="0" speed="8.50" length="52.01" shape="21.61,611.10 23.18,612.88 32.05,615.45 48.24,618.80 71.74,622.94"/>
        <lane id=":V0010_9_1" index="1" speed="8.50" length="58.26" shape="19.35,608.76 18.67,612.45 27.08,616.56 44.59,621.11 71.18,626.09"/>
    </edge>
    <edge id=":V0010_11" function="internal">
        <lane id=":V0010_11_0" index="0" speed="5.06" length="10.31" shape="17.10,606.42 13.97,606.99 12.10,606.33 11.51,604.45 12.19,601.34"/>
    </edge>
    <edge id=":V0011_0" function="internal">
        <lane id=":V0011_0_0" index="0" speed="5.09" length="6.06" shape="744.57,360.10 743.57,359.15 742.07,357.79 740.62,356.72 739.77,356.64"/>
    </edge>
    <edge id=":V0011_1" function="internal">
        <lane id=":V0011_1_0" index="0" speed="17.50" length="16.96" shape="746.73,357.74 734.21,346.30"/>
        <lane id=":V0011_1_1" index="1" speed="17.50" length="16.96" shape="748.89,355.38 736.37,343.94"/>
    </edge>
    <edge id=":V0011_3" function="internal">
        <lane id=":V0011_3_0" index="0" speed="10.00" length="14.13" shape="746.53,344.23 739.77,356.64"/>
        <lane id=":V0011_3_1" index="1" speed="10.00" length="14.13" shape="743.72,342.70 736.96,355.11"/>
    </edge>
    <edge id=":V0011_5" function="internal">
        <lane id=":V0011_5_0" index="0" speed="6.05" length="9.07" shape="743.72,342.70 742.17,344.77 740.44,345.67 738.50,345.39 736.37,343.94"/>
    </edge>
    <edge id=":V0012_0" function="internal">
        <lane id=":V0012_0_0" index="0" speed="6.60" length="9.08" shape="415.24,375.16 412.86,374.76 410.89,375.25 409.31,376.62 408.13,378.88"/>
        <lane id=":V0012_0_1" index="1" speed="8.08" length="14.11" shape="416.23,372.12 412.50,371.48 409.41,372.21 406.95,374.31 405.12,377.78"/>
    </edge>
    <edge id=":V0012_2" function="internal">
        <lane id=":V0012_2_0" index="0" speed="22.00" length="17.53" shape="416.23,372.12 411.14,370.98 407.49,370.95 403.85,370.92 398.76,369.79"/>
        <lane id=":V0012_2_1" index="1" speed="22.00" length="17.53" shape="416.23,372.12 399.75,366.74"/>
    </edge>
    <edge id=":V0012_4" function="internal">
        <lane id=":V0012_4_0" index="0" speed="21.50" length="14.66" shape="410.04,364.30 409.03,368.52 409.08,371.59 409.13,374.66 408.13,378.88"/>
        <lane id=":V0012_4_1" index="1" speed="21.50" length="14.66" shape="407.04,363.20 406.03,367.42 406.08,370.49 406.13,373.56 405.12,377.78"/>
        <lane id=":V0012_4_2" index="2" speed="21.50" length="14.66" shape="407.04,363.20 402.11,376.68"/>
    </edge>
    <edge id=":V0012_7" function="internal">
        <lane id=":V0012_7_0" index="0" speed="6.63" length="9.17" shape="407.04,363.20 405.86,365.40 404.25,366.73 402.21,367.18 399.75,366.74"/>
    </edge>
    <edge id=":V0013_0" function="internal">
        <lane id=":V0013_0_0" index="0" speed="5.71" length="9.21" shape="409.14,595.29 406.45,595.85 405.04,597.05 404.90,598.90 406.03,601.40"/>
    </edge>
    <edge id=":V0013_1" function="internal">
        <lane id=":V0013_1_0" index="0" speed="20.50" length="20.67" shape="408.92,592.10 402.07,592.07 396.66,591.35 392.24,590.56 388.38,590.32"/>
    </edge>
    <edge id=":V0013_2" function="internal">
        <lane id=":V0013_2_0" index="0" speed="13.00" length="22.42" shape="391.49,584.21 394.13,587.49 397.76,591.22 401.89,595.74 406.03,601.40"/>
        <lane id=":V0013_2_1" index="1" speed="13.00" length="22.42" shape="391.49,584.21 403.32,603.10"/>
    </edge>
    <edge id=":V0013_4" function="internal">
        <lane id=":V0013_4_0" index="0" speed="5.71" length="9.21" shape="391.49,584.21 392.62,586.71 392.48,588.56 391.06,589.77 388.38,590.32"/>
    </edge>
    <edge id=":V0014_0" function="internal">
        <lane id=":V0014_0_0" index="0" speed="6.30" length="11.14" shape="266.89,684.36 264.24,684.23 262.59,685.43 261.93,687.94 262.26,691.77"/>
    </edge>
    <edge id=":V0014_1" function="internal">
        <lane id=":V0014_1_0" index="0" speed="13.00" length="20.52" shape="266.89,684.36 263.00,684.42 258.41,685.54 252.81,686.40 245.92,685.71"/>
        <lane id=":V0014_1_1" index="1" speed="13.00" length="20.52" shape="266.89,684.36 263.07,683.92 258.66,683.95 253.32,683.75 246.69,682.60"/>
        <lane id=":V0014_1_2" index="2" speed="13.00" length="20.52" shape="266.89,684.36 247.47,679.50"/>
    </edge>
    <edge id=":V0014_4" function="internal">
        <lane id=":V0014_4_0" index="0" speed="10.50" length="19.09" shape="252.58,674.69 254.23,678.08 257.09,681.46 260.12,685.72 262.26,691.77"/>
        <lane id=":V0014_4_1" index="1" speed="10.50" length="19.09" shape="252.58,674.69 253.75,678.23 255.55,681.90 257.50,686.38 259.12,692.35"/>
        <lane id=":V0014_4_2" index="2" speed="10.50" length="19.09" shape="252.58,674.69 255.97,692.94"/>
    </edge>
    <edge id=":V0014_7" function="internal">
        <lane id=":V0014_7_0" index="0" speed="6.68" length="12.73" shape="252.58,674.69 252.90,678.88 252.02,681.59 249.95,682.83 246.69,682.60"/>
        <lane id=":V0014_7_1" index="1" speed="5.78" length="9.16" shape="252.58,674.69 252.71,677.39 251.90,679.09 250.15,679.79 247.47,679.50"/>
    </edge>
    <edge id=":V0015_0" function="internal">
        <lane id=":V0015_0_0" index="0" speed="6.48" length="10.20" shape="301.54,652.13 301.11,654.64 301.84,656.61 303.74,658.03 306.80,658.91"/>
    </edge>
    <edge id=":V0015_1" function="internal">
        <lane id=":V0015_1_0" index="0" speed="19.50" length="18.53" shape="301.54,652.13 300.76,655.74 300.45,659.78 299.87,664.58 298.25,670.48"/>
        <lane id=":V0015_1_1" index="1" speed="19.50" length="18.53" shape="301.54,652.13 295.25,669.38"/>
    </edge>
    <edge id=":V0015_3" function="internal">
        <lane id=":V0015_3_0" index="0" speed="11.50" length="14.82" shape="291.96,659.68 296.34,659.90 299.38,659.29 302.42,658.69 306.80,658.91"/>
        <lane id=":V0015_3_1" index="1" speed="11.50" length="14.82" shape="291.43,662.84 295.81,663.06 298.85,662.45 301.89,661.84 306.27,662.07"/>
        <lane id=":V0015_3_2" index="2" speed="11.50" length="14.82" shape="291.43,662.84 305.75,665.22"/>
    </edge>
    <edge id=":V0015_6" function="internal">
        <lane id=":V0015_6_0" index="0" speed="6.14" length="9.06" shape="291.43,662.84 293.86,663.61 295.31,664.96 295.77,666.88 295.25,669.38"/>
    </edge>
    <edge id=":V0016_0" function="internal">
        <lane id=":V0016_0_0" index="0" speed="10.36" length="10.17" shape="388.77,202.28 391.25,203.15 393.73,203.50 396.20,203.33 398.67,202.62"/>
    </edge>
    <edge id=":V0016_1" function="internal">
        <lane id=":V0016_1_0" index="0" speed="16.50" length="11.47" shape="388.77,202.28 391.74,203.09 394.24,203.03 396.89,203.04 400.27,204.05"/>
        <lane id=":V0016_1_1" index="1" speed="16.50" length="11.47" shape="388.77,202.28 398.93,206.95"/>
    </edge>
    <edge id=":V0016_3" function="internal">
        <lane id=":V0016_3_0" index="0" speed="17.50" length="10.76" shape="388.65,206.55 398.67,202.62"/>
        <lane id=":V0016_3_1" index="1" speed="17.50" length="10.76" shape="389.82,209.53 399.83,205.60"/>
    </edge>
    <edge id=":V0016_5" function="internal">
        <lane id=":V0016_5_0" index="0" speed="10.05" length="9.54" shape="389.82,209.53 393.37,208.20 396.07,207.33 397.93,206.91 398.93,206.95"/>
    </edge>
    <edge id=":V0017_0" function="internal">
        <lane id=":V0017_0_0" index="0" speed="13.67" length="13.45" shape="474.12,700.78 471.10,699.15 468.51,697.54 465.62,696.63 461.70,697.07"/>
    </edge>
    <edge id=":V0017_1" function="internal">
        <lane id=":V0017_1_0" index="0" speed="13.00" length="13.45" shape="474.12,700.78 470.88,700.53 467.77,701.64 464.30,702.60 459.97,701.90"/>
        <lane id=":V0017_1_1" index="1" speed="13.00" length="13.45" shape="474.12,700.78 471.00,700.04 468.18,700.08 465.11,700.01 461.19,698.94"/>
        <lane id=":V0017_1_2" index="2" speed="13.00" length="13.45" shape="474.12,700.78 462.40,695.98"/>
    </edge>
    <edge id=":V0017_4" function="internal">
        <lane id=":V0017_4_0" index="0" speed="14.00" length="12.77" shape="474.34,696.78 470.65,697.31 468.02,696.92 465.38,696.53 461.70,697.07"/>
        <lane id=":V0017_4_1" index="1" speed="14.00" length="12.77" shape="473.46,693.70 469.77,694.23 467.14,693.85 464.50,693.46 460.82,693.99"/>
    </edge>
    <edge id=":V0017_6" function="internal">
        <lane id=":V0017_6_0" index="0" speed="9.00" length="15.28" shape="472.58,690.62 468.85,693.12 466.79,696.51 464.76,699.04 461.19,698.94"/>
        <lane id=":V0017_6_1" index="1" speed="9.00" length="12.26" shape="472.58,690.62 469.40,692.44 467.41,694.71 465.46,696.29 462.40,695.98"/>
    </edge>
    <edge id=":V0018_0" function="internal">
        <lane id=":V0018_0_0" index="0" speed="7.15" length="13.16" shape="734.83,479.37 730.19,478.24 726.82,478.30 724.70,479.54 723.84,481.95"/>
    </edge>
    <edge id=":V0018_1" function="internal">
        <lane id=":V0018_1_0" index="0" speed="18.00" length="17.88" shape="734.83,479.37 717.83,473.82"/>
        <lane id=":V0018_1_1" index="1" speed="18.00" length="17.88" shape="735.82,476.32 718.82,470.78"/>
    </edge>
    <edge id=":V0018_3" function="internal">
        <lane id=":V0018_3_0" index="0" speed="10.50" length="16.91" shape="731.40,467.13 730.01,472.24 727.53,475.78 725.10,478.70 723.84,481.95"/>
    </edge>
    <edge id=":V0018_4" function="internal">
        <lane id=":V0018_4_0" index="0" speed="7.64" length="15.19" shape="728.21,466.88 727.27,471.09 725.23,473.65 722.08,474.57 717.83,473.82"/>
        <lane id=":V0018_4_1" index="1" speed="6.05" length="9.07" shape="725.02,466.64 724.46,469.15 723.24,470.68 721.36,471.22 718.82,470.78"/>
    </edge>
    <edge id=":V0019_0" function="internal">
        <lane id=":V0019_0_0" index="0" speed="12.50" length="21.55" shape="288.06,337.06 281.73,333.94 277.34,330.20 273.97,326.78 270.67,324.65"/>
    </edge>
    <edge id=":V0019_1" function="internal">
        <lane id=":V0019_1_0" index="0" speed="7.43" length="16.43" shape="289.05,334.01 284.66,331.89 282.72,329.18 283.22,325.88 286.16,321.99"/>
        <lane id=":V0019_1_1" index="1" speed="5.73" length="9.19" shape="290.05,330.97 287.59,329.78 286.50,328.27 286.78,326.42 288.43,324.25"/>
    </edge>
    <edge id=":V0019_3" function="internal">
        <lane id=":V0019_3_0" index="0" speed="6.17" length="10.89" shape="270.65,333.02 273.01,330.13 273.81,327.77 273.02,325.94 270.67,324.65"/>
    </edge>
    <edge id=":V0019_4" function="internal">
        <lane id=":V0019_4_0" index="0" speed="25.00" length="18.76" shape="270.65,333.02 283.90,319.73"/>
        <lane id=":V0019_4_1" index="1" speed="25.00" length="18.76" shape="272.92,335.28 286.16,321.99"/>
        <lane id=":V0019_4_2" index="2" speed="25.00" length="18.76" shape="275.19,337.53 288.43,324.25"/>
    </edge>
    <edge id=":V0020_0" function="internal">
        <lane id=":V0020_0_0" index="0" speed="8.32" length="12.53" shape="604.40,227.66 601.14,225.11 598.19,223.69 595.56,223.41 593.25,224.27"/>
    </edge>
    <edge id=":V0020_1" function="internal">
        <lane id=":V0020_1_0" index="0" speed="21.50" length="14.44" shape="604.40,227.66 593.74,217.92"/>
        <lane id=":V0020_1_1" index="1" speed="21.50" length="14.44" shape="606.56,225.30 595.90,215.56"/>
    </edge>
    <edge id=":V0020_3" function="internal">
        <lane id=":V0020_3_0" index="0" speed="14.00" length="14.87" shape="607.05,218.95 602.88,221.12 599.40,222.11 596.30,222.85 593.25,224.27"/>
    </edge>
    <edge id=":V0020_4" function="internal">
        <lane id=":V0020_4_0" index="0" speed="7.57" length="10.25" shape="605.29,216.29 602.83,217.48 600.45,217.76 598.14,217.12 595.90,215.56"/>
    </edge>
    <edge id=":V0021_0" function="internal">
        <lane id=":V0021_0_0" index="0" speed="6.74" length="9.16" shape="459.58,228.63 459.03,231.11 459.35,233.20 460.52,234.91 462.55,236.24"/>
    </edge>
    <edge id=":V0021_1" function="internal">
        <lane id=":V0021_1_0" index="0" speed="16.00" length="11.11" shape="459.58,228.63 455.77,239.06"/>
        <lane id=":V0021_1_1" index="1" speed="16.00" length="11.11" shape="456.57,227.53 452.76,237.97"/>
    </edge>
    <edge id=":V0021_3" function="internal">
        <lane id=":V0021_3_0" index="0" speed="11.00" length="14.06" shape="449.78,230.36 462.55,236.24"/>
    </edge>
    <edge id=":V0021_4" function="internal">
        <lane id=":V0021_4_0" index="0" speed="6.74" length="9.16" shape="449.78,230.36 451.82,231.68 452.99,233.39 453.31,235.49 452.76,237.97"/>
    </edge>
    <edge id=":V0022_0" function="internal">
        <lane id=":V0022_0_0" index="0" speed="12.67" length="18.38" shape="359.53,511.97 357.56,518.11 356.55,523.13 356.50,527.03 357.41,529.80"/>
    </edge>
    <edge id=":V0022_1" function="internal">
        <lane id=":V0022_1_0" index="0" speed="17.00" length="19.49" shape="359.53,511.97 352.85,530.28"/>
        <lane id=":V0022_1_1" index="1" speed="17.00" length="19.49" shape="356.52,510.88 349.84,529.18"/>
        <lane id=":V0022_1_2" index="2" speed="17.00" length="19.49" shape="353.52,509.78 346.83,528.09"/>
    </edge>
    <edge id=":V0022_4" function="internal">
        <lane id=":V0022_4_0" index="0" speed="16.00" length="21.34" shape="348.95,510.26 352.14,516.29 354.18,521.62 355.72,526.15 357.41,529.80"/>
    </edge>
    <edge id=":V0022_5" function="internal">
        <lane id=":V0022_5_0" index="0" speed="12.60" length="18.19" shape="346.24,511.96 348.81,516.78 350.26,521.25 350.61,525.39 349.84,529.18"/>
        <lane id=":V0022_5_1" index="1" speed="12.09" length="16.71" shape="346.24,511.96 347.81,515.42 348.43,519.26 348.11,523.48 346.83,528.09"/>
    </edge>
    <edge id=":V0023_0" function="internal">
        <lane id=":V0023_0_0" index="0" speed="7.09" length="9.70" shape="722.99,573.37 720.24,573.89 718.22,575.02 716.92,576.76 716.35,579.10"/>
    </edge>
    <edge id=":V0023_1" function="internal">
        <lane id=":V0023_1_0" index="0" speed="17.50" length="11.56" shape="722.99,573.37 711.46,574.18"/>
        <lane id=":V0023_1_1" index="1" speed="17.50" length="11.56" shape="722.77,570.18 711.24,570.99"/>
        <lane id=":V0023_1_2" index="2" speed="17.50" length="11.56" shape="722.55,566.99 711.02,567.79"/>
    </edge>
    <edge id=":V0023_4" function="internal">
        <lane id=":V0023_4_0" index="0" speed="11.50" length="17.08" shape="717.66,562.07 716.35,579.10"/>
    </edge>
    <edge id=":V0023_5" function="internal">
        <lane id=":V0023_5_0" index="0" speed="7.84" length="12.07" shape="717.66,562.07 717.02,565.82 715.73,568.56 713.81,570.28 711.24,570.99"/>
        <lane id=":V0023_5_1" index="1" speed="7.09" length="9.70" shape="717.66,562.07 717.10,564.41 715.80,566.14 713.77,567.27 711.02,567.79"/>
    </edge>
    <edge id=":V0024_0" function="internal">
        <lane id=":V0024_0_0" index="0" speed="6.87" length="11.07" shape="248.44,603.30 246.00,603.99 244.48,605.64 243.87,608.26 244.17,611.85"/>
    </edge>
    <edge id=":V0024_1" function="internal">
        <lane id=":V0024_1_0" index="0" speed="15.50" length="15.47" shape="248.44,603.30 243.93,604.12 240.98,605.43 238.03,606.74 233.52,607.55"/>
        <lane id=":V0024_1_1" index="1" speed="15.50" length="15.47" shape="248.22,600.11 243.71,600.93 240.76,602.24 237.81,603.54 233.30,604.36"/>
        <lane id=":V0024_1_2" index="2" speed="15.50" length="15.47" shape="248.22,600.11 233.08,601.17"/>
    </edge>
    <edge id=":V0024_4" function="internal">
        <lane id=":V0024_4_0" index="0" speed="16.00" length="17.66" shape="237.80,595.07 241.02,612.43"/>
    </edge>
    <edge id=":V0024_5" function="internal">
        <lane id=":V0024_5_0" index="0" speed="7.11" length="11.94" shape="237.80,595.07 238.14,598.97 237.50,601.82 235.89,603.62 233.30,604.36"/>
        <lane id=":V0024_5_1" index="1" speed="6.27" length="9.04" shape="237.80,595.07 237.90,597.59 237.15,599.44 235.54,600.64 233.08,601.17"/>
    </edge>
    <edge id=":V0025_0" function="internal">
        <lane id=":V0025_0_0" index="0" speed="6.81" length="9.20" shape="296.20,691.70 293.79,691.47 291.79,692.07 290.20,693.50 289.02,695.76"/>
    </edge>
    <edge id=":V0025_1" function="internal">
        <lane id=":V0025_1_0" index="0" speed="18.50" length="13.98" shape="296.20,691.70 282.64,688.31"/>
    </edge>
    <edge id=":V0025_2" function="internal">
        <lane id=":V0025_2_0" index="0" speed="25.00" length="11.09" shape="292.82,685.34 289.02,695.76"/>
        <lane id=":V0025_2_1" index="1" speed="25.00" length="11.09" shape="289.82,684.25 286.01,694.67"/>
    </edge>
    <edge id=":V0025_4" function="internal">
        <lane id=":V0025_4_0" index="0" speed="6.81" length="9.20" shape="289.82,684.25 288.63,686.51 287.04,687.95 285.04,688.54 282.64,688.31"/>
    </edge>
    <edge id=":V0026_0" function="internal">
        <lane id=":V0026_0_0" index="0" speed="7.00" length="8.99" shape="250.67,646.84 251.41,649.57 252.49,651.61 253.91,652.96 255.68,653.63"/>
    </edge>
    <edge id=":V0026_1" function="internal">
        <lane id=":V0026_1_0" index="0" speed="9.00" length="13.58" shape="247.52,647.42 250.00,660.77"/>
    </edge>
    <edge id=":V0026_2" function="internal">
        <lane id=":V0026_2_0" index="0" speed="5.00" length="12.41" shape="243.43,651.59 255.68,653.63"/>
        <lane id=":V0026_2_1" index="1" speed="5.00" length="12.41" shape="242.91,654.74 255.15,656.79"/>
    </edge>
    <edge id=":V0026_4" function="internal">
        <lane id=":V0026_4_0" index="0" speed="7.00" length="9.97" shape="242.91,654.74 245.66,655.51 247.76,656.76 249.21,658.52 250.00,660.77"/>
    </edge>
    <edge id=":V0027_0" function="internal">
        <lane id=":V0027_0_0" index="0" speed="8.78" length="14.84" shape="198.58,276.19 200.38,277.63 203.31,278.01 207.37,277.34 212.55,275.61"/>
    </edge>
    <edge id=":V0027_1" function="internal">
        <lane id=":V0027_1_0" index="0" speed="14.00" length="15.05" shape="198.58,276.19 201.15,278.41 204.53,279.66 208.20,281.37 211.62,284.96"/>
        <lane id=":V0027_1_1" index="1" speed="14.00" length="15.05" shape="198.58,276.19 200.77,278.74 203.28,280.67 206.02,282.99 208.91,286.65"/>
        <lane id=":V0027_1_2" index="2" speed="14.00" length="15.05" shape="198.58,276.19 206.20,288.35"/>
    </edge>
    <edge id=":V0027_4" function="internal">
        <lane id=":V0027_4_0" index="0" speed="21.50" length="17.01" shape="197.89,284.80 213.72,278.59"/>
    </edge>
    <edge id=":V0027_5" function="internal">
        <lane id=":V0027_5_0" index="0" speed="8.01" length="12.21" shape="197.89,284.80 201.55,283.75 204.60,283.71 207.06,284.68 208.91,286.65"/>
        <lane id=":V0027_5_1" index="1" speed="7.28" length="9.91" shape="197.89,284.80 200.24,284.31 202.41,284.73 204.40,286.08 206.20,288.35"/>
    </edge>
    <edge id=":V0028_0" function="internal">
        <lane id=":V0028_0_0" index="0" speed="11.50" length="37.66" shape="398.85,202.55 406.39,198.39 414.43,192.26 422.05,185.48 428.32,179.39"/>
    </edge>
    <edge id=":V0028_1" function="internal">
        <lane id=":V0028_1_0" index="0" speed="18.50" length="38.24" shape="398.85,202.55 433.21,185.64"/>
        <lane id=":V0028_1_1" index="1" speed="18.50" length="38.24" shape="400.02,205.53 434.37,188.62"/>
        <lane id=":V0028_1_2" index="2" speed="18.50" length="38.24" shape="400.02,205.53 435.54,191.60"/>
    </edge>
    <edge id=":V0028_4" function="internal">
        <lane id=":V0028_4_0" index="0" speed="16.00" length="39.38" shape="400.52,207.28 428.32,179.39"/>
        <lane id=":V0028_4_1" index="1" speed="16.00" length="39.38" shape="402.79,209.54 430.59,181.65"/>
    </edge>
    <edge id=":V0028_6" function="internal">
        <lane id=":V0028_6_0" index="0" speed="23.00" length="38.14" shape="402.79,209.54 408.74,204.05 415.99,198.48 424.54,193.20 434.37,188.62"/>
        <lane id=":V0028_6_1" index="1" speed="23.00" length="37.57" shape="402.79,209.54 408.92,204.52 416.58,199.97 425.53,195.72 435.54,191.60"/>
    </edge>
    <edge id=":V0029_0" function="internal">
        <lane id=":V0029_0_0" index="0" speed="8.64" length="12.19" shape="719.83,623.15 718.14,624.22 716.83,626.37 715.90,629.59 715.34,633.88"/>
        <lane id=":V0029_0_1" index="1" speed="9.85" length="16.04" shape="718.94,620.08 716.31,621.55 714.30,624.31 712.92,628.33 712.15,633.63"/>
    </edge>
    <edge id=":V0029_2" function="internal">
        <lane id=":V0029_2_0" index="0" speed="11.00" length="14.36" shape="718.94,620.08 715.15,622.20 713.30,625.02 711.45,627.84 707.65,629.97"/>
        <lane id=":V0029_2_1" index="1" speed="11.00" length="14.36" shape="718.94,620.08 715.16,621.68 712.86,623.48 710.56,625.28 706.77,626.89"/>
        <lane id=":V0029_2_2" index="2" speed="11.00" length="14.36" shape="718.94,620.08 705.89,623.81"/>
    </edge>
    <edge id=":V0029_5" function="internal">
        <lane id=":V0029_5_0" index="0" speed="17.00" length="17.17" shape="713.45,616.69 713.68,620.27 714.50,623.92 715.27,628.26 715.34,633.88"/>
        <lane id=":V0029_5_1" index="1" speed="17.00" length="17.17" shape="713.45,616.69 712.15,633.63"/>
    </edge>
    <edge id=":V0029_7" function="internal">
        <lane id=":V0029_7_0" index="0" speed="7.00" length="13.02" shape="713.45,616.69 712.79,620.51 711.46,623.48 709.45,625.60 706.77,626.89"/>