<nodes><node id="V0001" x="1214.4750000000001" y="714.9066666666666" type="priority" /><node id="V0002" x="884.1416666666668" y="1017.6916666666666" type="priority" /><node id="V0003" x="628.6408333333333" y="179.48916666666665" type="priority" /><node id="V0004" x="236.335" y="395.9675" type="priority" /><node id="V0005" x="1171.7083333333333" y="29.135" type="priority" /><node id="V0006" x="341.9291666666666" y="964.75" type="priority" /><node id="V0007" x="80.36541666666666" y="92.36916666666667" type="priority" /><node id="V0008" x="925.4833333333332" y="481.37833333333333" type="priority" /><node id="V0009" x="582.5783333333333" y="894.275" type="priority" /><node id="V0010" x="11.10875" y="798.9341666666666" type="priority" /><node id="V0011" x="936.6083333333332" y="460.9508333333333" type="priority" /><node id="V0012" x="516.2741666666667" y="487.24583333333334" type="priority" /><node id="V0013" x="501.4266666666667" y="764.6966666666667" type="priority" /><node id="V0014" x="325.78333333333336" y="877.7833333333333" type="priority" /><node id="V0015" x="380.0016666666667" y="860.475" type="priority" /><node id="V0016" x="508.25416666666666" y="289.32666666666665" type="priority" /><node id="V0017" x="584.835" y="895.1999999999999" type="priority" /><node id="V0018" x="915.0083333333333" y="617.2608333333334" type="priority" /><node id="V0019" x="369.5333333333333" y="439.39916666666664" type="priority" /><node id="V0020" x="761.6908333333334" y="301.09" type="priority" /><node id="V0021" x="576.9858333333333" y="320.9641666666667" type="priority" /><node id="V0022" x="446.8125" y="677.4908333333334" type="priority" /><node id="V0023" x="905.8166666666666" y="736.4583333333334" type="priority" /><node id="V0024" x="307.30583333333334" y="778.2516666666667" type="priority" /><node id="V0025" x="369.66833333333335" y="888.775" type="priority" /><node id="V0026" x="320.73583333333335" y="850.5916666666667" type="priority" /><node id="V0027" x="263.76416666666665" y="385.21000000000004" type="priority" /><node id="V0028" x="526.1316666666667" y="282.31583333333333" type="priority" /><node id="V0029" x="900.5500000000001" y="804.7941666666667" type="priority" /><node id="V0030" x="496.37416666666667" y="920.525" type="priority" /><node id="V0031" x="264.04333333333335" y="545.2158333333333" type="priority" /><node id="V0032" x="492.645" y="479.5416666666667" type="priority" /><node id="V0033" x="279.2683333333333" y="409.9666666666667" type="priority" /><node id="V0034" x="676.5875" y="223.30999999999997" type="priority" /><node id="V0035" x="601.9541666666667" y="252.58" type="priority" /><node id="V0036" x="527.5366666666666" y="456.39916666666664" type="priority" /><node id="V0037" x="515.7175" y="292.7625" type="priority" /><node id="V0038" x="668.3333333333334" y="363.0116666666667" type="priority" /><node id="V0039" x="412.7108333333333" y="770.8908333333334" type="priority" /><node id="V0040" x="325.4166666666667" y="483.6525" type="priority" /><node id="V0041" x="278.25083333333333" y="621.745" type="priority" /><node id="V0042" x="372.6758333333333" y="559.1141666666666" type="priority" /></nodes>