<nodes><node id="V0001" x="971.58" y="571.9253333333332" type="priority" /><node id="V0002" x="707.3133333333334" y="814.1533333333333" type="priority" /><node id="V0003" x="502.91266666666667" y="143.59133333333332" type="priority" /><node id="V0004" x="189.068" y="316.774" type="priority" /><node id="V0005" x="937.3666666666667" y="23.308" type="priority" /><node id="V0006" x="273.5433333333333" y="771.8" type="priority" /><node id="V0007" x="64.29233333333333" y="73.89533333333334" type="priority" /><node id="V0008" x="740.3866666666667" y="385.10266666666666" type="priority" /><node id="V0009" x="466.06266666666664" y="715.42" type="priority" /><node id="V0010" x="8.887" y="639.1473333333332" type="priority" /><node id="V0011" x="749.2866666666666" y="368.7606666666667" type="priority" /><node id="V0012" x="413.01933333333335" y="389.7966666666667" type="priority" /><node id="V0013" x="401.1413333333333" y="611.7573333333333" type="priority" /><node id="V0014" x="260.62666666666667" y="702.2266666666667" type="priority" /><node id="V0015" x="304.0013333333334" y="688.38" type="priority" /><node id="V0016" x="406.60333333333335" y="231.46133333333333" type="priority" /><node id="V0017" x="467.86800000000005" y="716.16" type="priority" /><node id="V0018" x="732.0066666666667" y="493.8086666666667" type="priority" /><node id="V0019" x="295.62666666666667" y="351.51933333333335" type="priority" /><node id="V0020" x="609.3526666666668" y="240.87199999999999" type="priority" /><node id="V0021" x="461.58866666666665" y="256.77133333333336" type="priority" /><node id="V0022" x="357.45" y="541.9926666666667" type="priority" /><node id="V0023" x="724.6533333333333" y="589.1666666666666" type="priority" /><node id="V0024" x="245.84466666666668" y="622.6013333333334" type="priority" /><node id="V0025" x="295.73466666666667" y="711.02" type="priority" /><node id="V0026" x="256.58866666666665" y="680.4733333333334" type="priority" /><node id="V0027" x="211.01133333333334" y="308.168" type="priority" /><node id="V0028" x="420.9053333333333" y="225.85266666666666" type="priority" /><node id="V0029" x="720.44" y="643.8353333333333" type="priority" /><node id="V0030" x="397.09933333333333" y="736.42" type="priority" /><node id="V0031" x="211.23466666666667" y="436.17266666666666" type="priority" /><node id="V0032" x="394.116" y="383.6333333333333" type="priority" /><node id="V0033" x="223.41466666666665" y="327.97333333333336" type="priority" /><node id="V0034" x="541.27" y="178.648" type="priority" /><node id="V0035" x="481.56333333333333" y="202.064" type="priority" /><node id="V0036" x="422.0293333333333" y="365.1193333333333" type="priority" /><node id="V0037" x="412.57399999999996" y="234.21" type="priority" /><node id="V0038" x="534.6666666666666" y="290.40933333333334" type="priority" /><node id="V0039" x="330.16866666666664" y="616.7126666666667" type="priority" /><node id="V0040" x="260.3333333333333" y="386.92199999999997" type="priority" /><node id="V0041" x="222.60066666666668" y="497.39599999999996" type="priority" /><node id="V0042" x="298.1406666666666" y="447.29133333333334" type="priority" /></nodes>