<configuration><input><net-file value="7.net.xml" /><route-files value="7.rou.xml" /></input><time><begin value="0" /></time></configuration>