<?xml version="1.0" encoding="UTF-8"?>

<!-- generated on 2023-06-27 19:32:32 by Eclipse SUMO netconvert Version 1.16.0
<configuration xmlns:xsi="http://www.w3.org/2001/XMLSchema-instance" xsi:noNamespaceSchemaLocation="http://sumo.dlr.de/xsd/netconvertConfiguration.xsd">

    <input>
        <node-files value="data/simulationConfigurations/optimized\optimized.nod.xml"/>
        <edge-files value="data/simulationConfigurations/optimized\optimized.edg.xml"/>
    </input>

    <output>
        <output-file value="data/simulationConfigurations/optimized\optimized.net.xml"/>
    </output>

</configuration>
-->

<net version="1.16" junctionCornerDetail="5" limitTurnSpeed="5.50" xmlns:xsi="http://www.w3.org/2001/XMLSchema-instance" xsi:noNamespaceSchemaLocation="http://sumo.dlr.de/xsd/net_file.xsd">

    <location netOffset="-11.11,-29.14" convBoundary="0.00,0.00,1203.37,988.56" origBoundary="11.11,29.14,1214.48,1017.69" projParameter="!"/>

    <edge id=":V0002_0" function="internal">
        <lane id=":V0002_0_0" index="0" speed="17.69" length="40.69" shape="884.84,988.59 878.79,991.96 870.20,993.30 859.07,992.61 845.42,989.88"/>
        <lane id=":V0002_0_1" index="1" speed="17.01" length="37.57" shape="882.68,986.23 877.28,989.12 869.40,990.17 859.04,989.39 846.20,986.78"/>
    </edge>
    <edge id=":V0002_2" function="internal">
        <lane id=":V0002_2_0" index="0" speed="14.78" length="33.80" shape="880.52,983.87 875.81,986.09 868.85,986.20 859.63,984.21 848.15,980.10"/>
    </edge>
    <edge id=":V0002_3" function="internal">
        <lane id=":V0002_3_0" index="0" speed="11.35" length="33.43" shape="875.20,981.28 872.56,987.10 866.36,989.44 857.33,989.07 846.20,986.78"/>
        <lane id=":V0002_3_1" index="1" speed="10.95" length="31.02" shape="875.20,981.28 872.68,985.46 866.59,986.82 857.74,986.00 846.97,983.68"/>
    </edge>
    <edge id=":V0002_5" function="internal">
        <lane id=":V0002_5_0" index="0" speed="10.33" length="30.17" shape="875.20,981.28 872.67,985.27 866.66,985.82 858.16,983.81 848.15,980.10"/>
    </edge>
    <edge id=":V0003_0" function="internal">
        <lane id=":V0003_0_0" index="0" speed="5.83" length="9.13" shape="625.67,168.63 623.47,167.12 621.58,166.89 620.01,167.96 618.76,170.32"/>
        <lane id=":V0003_0_1" index="1" speed="7.49" length="15.96" shape="627.83,166.26 623.98,163.62 620.69,163.24 617.94,165.10 615.75,169.22"/>
    </edge>
    <edge id=":V0003_2" function="internal">
        <lane id=":V0003_2_0" index="0" speed="17.00" length="35.87" shape="627.83,166.26 619.66,159.97 611.74,155.87 604.05,153.37 596.55,151.88"/>
        <lane id=":V0003_2_1" index="1" speed="17.00" length="35.87" shape="629.98,163.90 621.56,157.48 613.07,153.11 604.81,150.33 597.06,148.72"/>
    </edge>
    <edge id=":V0003_4" function="internal">
        <lane id=":V0003_4_0" index="0" speed="8.13" length="20.98" shape="629.98,163.90 624.59,158.67 620.55,153.80 618.97,149.94 620.96,147.74"/>
    </edge>
    <edge id=":V0003_5" function="internal">
        <lane id=":V0003_5_0" index="0" speed="5.57" length="9.38" shape="598.56,158.05 600.33,155.77 600.58,153.98 599.32,152.69 596.55,151.88"/>
    </edge>
    <edge id=":V0003_6" function="internal">
        <lane id=":V0003_6_0" index="0" speed="15.50" length="24.96" shape="598.56,158.05 604.35,152.54 609.08,148.99 613.93,146.62 620.11,144.66"/>
        <lane id=":V0003_6_1" index="1" speed="15.50" length="24.96" shape="600.83,160.31 606.15,155.18 610.42,151.88 614.93,149.65 620.96,147.74"/>
    </edge>
    <edge id=":V0003_8" function="internal">
        <lane id=":V0003_8_0" index="0" speed="7.62" length="23.84" shape="600.83,160.31 606.50,157.54 612.09,158.80 615.78,163.04 615.75,169.22"/>
        <lane id=":V0003_8_1" index="1" speed="6.22" length="15.27" shape="603.09,162.57 606.74,160.77 610.36,161.52 612.75,164.19 612.75,168.12"/>
    </edge>
    <edge id=":V0003_10" function="internal">
        <lane id=":V0003_10_0" index="0" speed="10.10" length="26.65" shape="609.74,167.03 611.06,160.11 609.38,154.75 604.71,150.96 597.06,148.72"/>
    </edge>
    <edge id=":V0003_11" function="internal">
        <lane id=":V0003_11_0" index="0" speed="10.95" length="22.72" shape="609.74,167.03 612.91,159.07 615.83,153.21 618.52,149.43 620.96,147.74"/>
    </edge>
    <edge id=":V0003_12" function="internal">
        <lane id=":V0003_12_0" index="0" speed="3.65" length="4.67" shape="609.74,167.03 610.90,166.17 611.79,166.07 612.41,166.72 612.75,168.12"/>
    </edge>
    <edge id=":V0004_0" function="internal">
        <lane id=":V0004_0_0" index="0" speed="5.70" length="9.21" shape="233.65,371.26 230.95,370.77 229.19,371.35 228.38,373.02 228.51,375.77"/>
    </edge>
    <edge id=":V0004_1" function="internal">
        <lane id=":V0004_1_0" index="0" speed="7.43" length="20.22" shape="233.65,371.26 228.24,368.40 224.74,364.43 224.22,360.37 227.75,357.25"/>
        <lane id=":V0004_1_1" index="1" speed="7.38" length="19.97" shape="233.65,371.26 226.63,368.38 223.50,365.58 224.26,362.86 228.92,360.23"/>
        <lane id=":V0004_1_2" index="2" speed="6.41" length="14.60" shape="233.65,371.26 228.50,369.15 226.18,367.10 226.71,365.12 230.09,363.21"/>
    </edge>
    <edge id=":V0005_0" function="internal">
        <lane id=":V0005_0_0" index="0" speed="13.34" length="65.60" shape="1098.26,12.28 1121.16,6.62 1141.35,3.62 1154.11,5.41 1154.74,14.10"/>
    </edge>
    <edge id=":V0005_1" function="internal">
        <lane id=":V0005_1_0" index="0" speed="9.04" length="36.09" shape="1099.11,15.36 1108.70,16.15 1115.28,22.25 1116.99,30.57 1111.95,38.03"/>
        <lane id=":V0005_1_1" index="1" speed="8.50" length="31.65" shape="1099.11,15.36 1107.51,16.06 1113.27,21.42 1114.75,28.72 1110.32,35.27"/>
    </edge>
    <edge id=":V0005_3" function="internal">
        <lane id=":V0005_3_0" index="0" speed="12.92" length="64.46" shape="1100.41,18.45 1122.17,10.58 1141.82,5.39 1154.35,5.65 1154.74,14.10"/>
    </edge>
    <edge id=":V0006_0" function="internal">
        <lane id=":V0006_0_0" index="0" speed="15.75" length="21.34" shape="347.40,935.86 340.71,937.24 335.04,937.43 330.32,936.68 326.53,935.25"/>
    </edge>
    <edge id=":V0006_1" function="internal">
        <lane id=":V0006_1_0" index="0" speed="11.07" length="30.61" shape="346.18,916.87 342.23,926.31 337.85,933.04 332.72,936.28 326.53,935.25"/>
    </edge>
    <edge id=":V0006_2" function="internal">
        <lane id=":V0006_2_0" index="0" speed="9.30" length="29.23" shape="334.99,914.25 336.22,923.54 335.84,931.50 332.92,936.09 326.53,935.25"/>
    </edge>
    <edge id=":V0007_0" function="internal">
        <lane id=":V0007_0_0" index="0" speed="7.79" length="26.64" shape="77.57,69.42 87.20,70.51 90.75,69.75 88.22,67.15 79.60,62.71"/>
        <lane id=":V0007_0_1" index="1" speed="2.96" length="2.07" shape="78.51,66.32 79.25,66.41 79.53,66.35 79.33,66.15 78.66,65.80"/>
    </edge>
    <edge id=":V0007_2" function="internal">
        <lane id=":V0007_2_0" index="0" speed="4.92" length="7.30" shape="78.51,66.32 76.05,66.19 74.70,66.74 74.46,67.99 75.33,69.92"/>
    </edge>
    <edge id=":V0008_0" function="internal">
        <lane id=":V0008_0_0" index="0" speed="13.00" length="18.18" shape="922.04,448.21 919.17,453.45 917.05,457.62 915.66,461.25 915.01,464.83"/>
    </edge>
    <edge id=":V0008_1" function="internal">
        <lane id=":V0008_1_0" index="0" speed="10.08" length="16.86" shape="911.41,449.12 913.38,450.90 914.63,454.12 915.18,458.76 915.01,464.83"/>
    </edge>
    <edge id=":V0010_0" function="internal">
        <lane id=":V0010_0_0" index="0" speed="9.93" length="27.88" shape="16.02,779.62 8.03,775.11 2.39,770.35 0.29,765.34 2.93,760.06"/>
    </edge>
    <edge id=":V0010_1" function="internal">
        <lane id=":V0010_1_0" index="0" speed="10.97" length="54.36" shape="16.02,779.62 10.64,774.46 20.46,773.41 38.37,774.99 57.22,777.72"/>
    </edge>
    <edge id=":V0010_2" function="internal">
        <lane id=":V0010_2_0" index="0" speed="13.38" length="58.67" shape="55.85,785.44 34.30,779.64 16.66,773.68 5.95,767.83 5.16,762.36"/>
    </edge>
    <edge id=":V0010_3" function="internal">
        <lane id=":V0010_3_0" index="0" speed="5.19" length="11.45" shape="55.85,785.44 53.30,783.00 52.68,780.90 53.99,779.14 57.22,777.72"/>
    </edge>
    <edge id=":V0010_4" function="internal">
        <lane id=":V0010_4_0" index="0" speed="6.48" length="18.05" shape="58.56,767.31 51.98,768.03 49.75,768.95 51.87,770.08 58.34,771.42"/>
    </edge>
    <edge id=":V0010_5" function="internal">
        <lane id=":V0010_5_0" index="0" speed="12.23" length="57.12" shape="58.56,767.31 36.58,768.51 17.80,768.53 6.05,766.71 5.16,762.36"/>
    </edge>
    <edge id=":V0010_6" function="internal">
        <lane id=":V0010_6_0" index="0" speed="10.50" length="49.87" shape="8.67,765.97 15.85,767.52 32.54,770.42 49.58,773.24 57.78,774.57"/>
    </edge>
    <edge id=":V0010_7" function="internal">
        <lane id=":V0010_7_0" index="0" speed="4.42" length="7.35" shape="8.67,765.97 6.44,766.38 5.11,765.92 4.68,764.58 5.16,762.36"/>
    </edge>
    <edge id=":V0011_0" function="internal">
        <lane id=":V0011_0_0" index="0" speed="6.05" length="9.07" shape="931.24,443.57 929.11,442.12 927.18,441.84 925.44,442.73 923.89,444.80"/>
    </edge>
    <edge id=":V0011_1" function="internal">
        <lane id=":V0011_1_0" index="0" speed="21.00" length="16.17" shape="931.24,443.57 919.31,432.66"/>
        <lane id=":V0011_1_1" index="1" speed="21.00" length="16.17" shape="933.40,441.21 921.47,430.30"/>
    </edge>
    <edge id=":V0011_3" function="internal">
        <lane id=":V0011_3_0" index="0" speed="16.00" length="16.17" shape="928.82,429.07 921.08,443.27"/>
    </edge>
    <edge id=":V0011_4" function="internal">
        <lane id=":V0011_4_0" index="0" speed="6.05" length="9.07" shape="928.82,429.07 927.27,431.13 925.54,432.03 923.60,431.75 921.47,430.30"/>
    </edge>
    <edge id=":V0012_0" function="internal">
        <lane id=":V0012_0_0" index="0" speed="6.57" length="8.99" shape="513.23,465.79 510.86,465.39 508.89,465.85 507.32,467.19 506.15,469.40"/>
    </edge>
    <edge id=":V0012_1" function="internal">
        <lane id=":V0012_1_0" index="0" speed="24.50" length="14.13" shape="513.23,465.79 499.79,461.41"/>
        <lane id=":V0012_1_1" index="1" speed="24.50" length="14.13" shape="514.22,462.75 500.78,458.37"/>
    </edge>
    <edge id=":V0012_3" function="internal">
        <lane id=":V0012_3_0" index="0" speed="9.00" length="14.46" shape="508.03,454.93 507.37,458.21 507.39,461.35 507.26,464.91 506.15,469.40"/>
        <lane id=":V0012_3_1" index="1" speed="9.00" length="14.46" shape="508.03,454.93 503.15,468.30"/>
    </edge>
    <edge id=":V0012_5" function="internal">
        <lane id=":V0012_5_0" index="0" speed="6.60" length="9.08" shape="508.03,454.93 506.87,457.09 505.27,458.38 503.25,458.80 500.78,458.37"/>
    </edge>
    <edge id=":V0013_0" function="internal">
        <lane id=":V0013_0_0" index="0" speed="6.70" length="13.24" shape="505.27,736.12 501.87,736.94 500.24,738.80 500.38,741.69 502.28,745.62"/>
    </edge>
    <edge id=":V0013_1" function="internal">
        <lane id=":V0013_1_0" index="0" speed="21.00" length="19.41" shape="505.27,736.12 501.69,737.37 497.94,739.84 493.25,742.37 486.88,743.82"/>
        <lane id=":V0013_1_1" index="1" speed="21.00" length="19.41" shape="505.27,736.12 501.60,736.88 497.68,738.26 492.90,739.69 486.66,740.63"/>
        <lane id=":V0013_1_2" index="2" speed="21.00" length="19.41" shape="505.27,736.12 486.44,737.44"/>
    </edge>
    <edge id=":V0013_4" function="internal">
        <lane id=":V0013_4_0" index="0" speed="17.50" length="19.75" shape="494.97,727.93 497.55,732.97 498.63,736.77 499.71,740.58 502.28,745.62"/>
        <lane id=":V0013_4_1" index="1" speed="17.50" length="19.75" shape="494.97,727.93 497.18,733.33 497.27,737.62 497.37,741.92 499.57,747.32"/>
    </edge>
    <edge id=":V0013_6" function="internal">
        <lane id=":V0013_6_0" index="0" speed="7.42" length="16.57" shape="492.26,729.62 494.30,734.13 494.05,737.46 491.50,739.63 486.66,740.63"/>
        <lane id=":V0013_6_1" index="1" speed="5.71" length="9.21" shape="489.55,731.32 490.68,733.82 490.54,735.68 489.13,736.88 486.44,737.44"/>
    </edge>
    <edge id=":V0014_0" function="internal">
        <lane id=":V0014_0_0" index="0" speed="5.78" length="9.16" shape="329.83,854.09 327.15,853.80 325.40,854.51 324.59,856.20 324.71,858.90"/>
    </edge>
    <edge id=":V0014_1" function="internal">
        <lane id=":V0014_1_0" index="0" speed="18.00" length="20.02" shape="329.83,854.09 310.41,849.23"/>
    </edge>
    <edge id=":V0014_2" function="internal">
        <lane id=":V0014_2_0" index="0" speed="9.00" length="16.33" shape="321.81,843.26 322.19,848.03 321.69,851.37 321.19,854.70 321.57,859.48"/>
        <lane id=":V0014_2_1" index="1" speed="9.00" length="16.33" shape="318.66,843.84 319.04,848.62 318.54,851.95 318.04,855.29 318.42,860.07"/>
    </edge>
    <edge id=":V0014_4" function="internal">
        <lane id=":V0014_4_0" index="0" speed="5.78" length="9.16" shape="315.52,844.42 315.64,847.12 314.83,848.82 313.09,849.52 310.41,849.23"/>
    </edge>
    <edge id=":V0015_0" function="internal">
        <lane id=":V0015_0_0" index="0" speed="7.34" length="13.44" shape="378.12,820.05 376.80,824.74 376.69,828.22 377.80,830.50 380.11,831.59"/>
    </edge>
    <edge id=":V0015_1" function="internal">
        <lane id=":V0015_1_0" index="0" speed="18.00" length="17.77" shape="378.12,820.05 372.03,836.74"/>
        <lane id=":V0015_1_1" index="1" speed="18.00" length="17.77" shape="375.12,818.96 369.02,835.65"/>
    </edge>
    <edge id=":V0015_3" function="internal">
        <lane id=":V0015_3_0" index="0" speed="11.50" length="16.68" shape="366.26,822.79 371.15,824.62 374.37,827.39 377.01,830.06 380.11,831.59"/>
    </edge>
    <edge id=":V0015_4" function="internal">
        <lane id=":V0015_4_0" index="0" speed="7.71" length="14.94" shape="365.74,825.95 369.75,827.23 372.13,829.45 372.89,832.62 372.03,836.74"/>
        <lane id=":V0015_4_1" index="1" speed="6.14" length="9.06" shape="365.21,829.10 367.64,829.88 369.09,831.23 369.55,833.15 369.02,835.65"/>
    </edge>
    <edge id=":V0016_0" function="internal">
        <lane id=":V0016_0_0" index="0" speed="11.06" length="11.64" shape="489.54,251.41 499.41,257.59"/>
    </edge>
    <edge id=":V0016_1" function="internal">
        <lane id=":V0016_1_0" index="0" speed="20.00" length="13.87" shape="489.54,251.41 493.45,252.66 496.36,252.79 499.27,252.91 503.18,254.16"/>
        <lane id=":V0016_1_1" index="1" speed="20.00" length="13.87" shape="488.20,254.31 492.11,255.56 495.02,255.69 497.94,255.82 501.84,257.07"/>
        <lane id=":V0016_1_2" index="2" speed="20.00" length="13.87" shape="488.20,254.31 500.51,259.98"/>
    </edge>
    <edge id=":V0016_4" function="internal">
        <lane id=":V0016_4_0" index="0" speed="19.00" length="11.50" shape="488.08,258.59 491.43,257.81 493.98,257.99 496.42,258.22 499.41,257.59"/>
    </edge>
    <edge id=":V0016_5" function="internal">
        <lane id=":V0016_5_0" index="0" speed="11.83" length="13.40" shape="489.25,261.57 491.48,260.65 495.55,259.03 499.62,257.55 501.84,257.07"/>
        <lane id=":V0016_5_1" index="1" speed="11.04" length="11.61" shape="489.25,261.57 492.93,260.30 496.04,259.61 498.56,259.51 500.51,259.98"/>
    </edge>
    <edge id=":V0017_0" function="internal">
        <lane id=":V0017_0_0" index="0" speed="17.32" length="21.80" shape="588.86,873.99 584.29,872.29 578.38,870.49 572.43,869.30 567.76,869.44"/>
    </edge>
    <edge id=":V0017_1" function="internal">
        <lane id=":V0017_1_0" index="0" speed="14.00" length="14.69" shape="588.86,873.99 575.27,868.43"/>
    </edge>
    <edge id=":V0017_2" function="internal">
        <lane id=":V0017_2_0" index="0" speed="15.50" length="21.52" shape="589.08,869.99 582.10,870.95 576.38,870.30 571.68,869.36 567.76,869.44"/>
    </edge>
    <edge id=":V0017_3" function="internal">
        <lane id=":V0017_3_0" index="0" speed="9.50" length="13.35" shape="587.32,863.84 583.47,865.57 580.70,867.51 578.23,868.76 575.27,868.43"/>
    </edge>
    <edge id=":V0018_0" function="internal">
        <lane id=":V0018_0_0" index="0" speed="6.05" length="9.07" shape="910.57,598.72 908.03,598.27 906.15,598.82 904.93,600.35 904.37,602.86"/>
    </edge>
    <edge id=":V0018_1" function="internal">
        <lane id=":V0018_1_0" index="0" speed="15.50" length="13.62" shape="911.56,595.67 898.61,591.45"/>
        <lane id=":V0018_1_1" index="1" speed="15.50" length="13.62" shape="912.55,592.63 899.60,588.41"/>
    </edge>
    <edge id=":V0018_3" function="internal">
        <lane id=":V0018_3_0" index="0" speed="18.00" length="18.66" shape="905.80,584.26 904.37,602.86"/>
    </edge>
    <edge id=":V0018_4" function="internal">
        <lane id=":V0018_4_0" index="0" speed="6.05" length="9.07" shape="905.80,584.26 905.24,586.78 904.02,588.31 902.14,588.85 899.60,588.41"/>
    </edge>
    <edge id=":V0019_0" function="internal">
        <lane id=":V0019_0_0" index="0" speed="10.67" length="19.27" shape="353.89,420.48 353.07,415.83 350.87,411.99 347.30,408.95 342.36,406.71"/>
    </edge>
    <edge id=":V0019_1" function="internal">
        <lane id=":V0019_1_0" index="0" speed="10.95" length="16.44" shape="357.09,420.39 356.99,413.68 357.08,408.71 357.37,405.50 357.85,404.04"/>
    </edge>
    <edge id=":V0019_2" function="internal">
        <lane id=":V0019_2_0" index="0" speed="8.50" length="21.52" shape="362.81,413.38 342.36,406.71"/>
    </edge>
    <edge id=":V0019_3" function="internal">
        <lane id=":V0019_3_0" index="0" speed="5.95" length="10.00" shape="362.81,413.38 359.88,412.04 358.46,410.41 358.54,408.50 360.12,406.30"/>
    </edge>
    <edge id=":V0019_4" function="internal">
        <lane id=":V0019_4_0" index="0" speed="5.80" length="9.46" shape="343.70,413.71 345.46,411.41 345.83,409.48 344.79,407.91 342.36,406.71"/>
    </edge>
    <edge id=":V0019_5" function="internal">
        <lane id=":V0019_5_0" index="0" speed="17.00" length="17.10" shape="345.96,415.97 349.17,412.04 350.77,408.87 352.38,405.71 355.58,401.78"/>
        <lane id=":V0019_5_1" index="1" speed="17.00" length="17.10" shape="348.23,418.22 351.43,414.30 353.04,411.13 354.64,407.97 357.85,404.04"/>
        <lane id=":V0019_5_2" index="2" speed="17.00" length="17.10" shape="348.23,418.22 360.12,406.30"/>
    </edge>
    <edge id=":V0020_0" function="internal">
        <lane id=":V0020_0_0" index="0" speed="9.12" length="15.23" shape="754.52,282.06 751.08,279.61 747.62,278.54 744.13,278.83 740.62,280.48"/>
    </edge>
    <edge id=":V0020_1" function="internal">
        <lane id=":V0020_1_0" index="0" speed="17.00" length="15.53" shape="754.52,282.06 750.81,279.34 747.81,278.10 744.82,276.85 741.11,274.14"/>
        <lane id=":V0020_1_1" index="1" speed="17.00" length="15.53" shape="756.68,279.69 752.97,276.98 749.97,275.73 746.98,274.49 743.27,271.77"/>
        <lane id=":V0020_1_2" index="2" speed="17.00" length="15.53" shape="756.68,279.69 745.43,269.41"/>
    </edge>
    <edge id=":V0020_4" function="internal">
        <lane id=":V0020_4_0" index="0" speed="20.50" length="18.09" shape="757.17,273.34 752.00,276.17 747.64,277.75 743.91,278.90 740.62,280.48"/>
    </edge>
    <edge id=":V0020_5" function="internal">
        <lane id=":V0020_5_0" index="0" speed="8.51" length="13.16" shape="755.40,270.68 751.75,272.67 748.51,273.51 745.68,273.22 743.27,271.77"/>
        <lane id=":V0020_5_1" index="1" speed="7.81" length="10.94" shape="755.40,270.68 752.91,271.84 750.42,272.01 747.92,271.20 745.43,269.41"/>
    </edge>
    <edge id=":V0021_0" function="internal">
        <lane id=":V0021_0_0" index="0" speed="6.74" length="9.16" shape="574.78,281.45 574.34,283.73 574.80,285.71 576.15,287.40 578.40,288.79"/>
        <lane id=":V0021_0_1" index="1" speed="7.53" length="11.66" shape="574.78,281.45 573.84,285.04 573.91,287.95 574.99,290.16 577.07,291.70"/>
        <lane id=":V0021_0_2" index="2" speed="8.29" length="14.34" shape="574.78,281.45 573.34,286.36 573.03,290.18 573.82,292.93 575.73,294.60"/>
    </edge>
    <edge id=":V0021_3" function="internal">
        <lane id=":V0021_3_0" index="0" speed="11.50" length="17.01" shape="574.78,281.45 568.94,297.43"/>
        <lane id=":V0021_3_1" index="1" speed="11.50" length="17.01" shape="571.77,280.36 565.94,296.33"/>
    </edge>
    <edge id=":V0021_5" function="internal">
        <lane id=":V0021_5_0" index="0" speed="3.65" length="4.67" shape="571.77,280.36 570.61,281.21 569.72,281.31 569.10,280.66 568.76,279.26"/>
    </edge>
    <edge id=":V0022_0" function="internal">
        <lane id=":V0022_0_0" index="0" speed="7.50" length="16.29" shape="443.35,641.42 443.41,643.30 444.54,646.37 446.72,650.63 449.98,656.08"/>
    </edge>
    <edge id=":V0022_1" function="internal">
        <lane id=":V0022_1_0" index="0" speed="15.50" length="18.81" shape="443.35,641.42 441.91,646.80 441.67,650.68 441.42,654.57 439.99,659.95"/>
        <lane id=":V0022_1_1" index="1" speed="15.50" length="18.81" shape="440.34,640.32 438.91,645.70 438.66,649.59 438.41,653.47 436.98,658.86"/>
        <lane id=":V0022_1_2" index="2" speed="15.50" length="18.81" shape="440.34,640.32 433.97,657.76"/>
    </edge>
    <edge id=":V0022_4" function="internal">
        <lane id=":V0022_4_0" index="0" speed="15.00" length="18.73" shape="434.70,643.74 437.08,646.60 440.10,649.35 443.57,652.81 447.27,657.77"/>
        <lane id=":V0022_4_1" index="1" speed="15.00" length="18.73" shape="434.70,643.74 444.55,659.47"/>
    </edge>
    <edge id=":V0022_6" function="internal">
        <lane id=":V0022_6_0" index="0" speed="11.78" length="15.83" shape="434.70,643.74 436.69,647.63 437.73,651.45 437.83,655.19 436.98,658.86"/>
        <lane id=":V0022_6_1" index="1" speed="11.28" length="14.46" shape="434.70,643.74 435.70,646.28 435.91,649.46 435.33,653.29 433.97,657.76"/>
    </edge>
    <edge id=":V0023_0" function="internal">
        <lane id=":V0023_0_0" index="0" speed="6.54" length="8.10" shape="903.75,714.71 901.62,715.16 900.04,716.17 899.02,717.74 898.56,719.87"/>
        <lane id=":V0023_0_1" index="1" speed="8.04" length="12.73" shape="903.53,711.52 900.17,712.22 897.70,713.81 896.09,716.28 895.36,719.62"/>
    </edge>
    <edge id=":V0023_2" function="internal">
        <lane id=":V0023_2_0" index="0" speed="14.00" length="12.43" shape="903.30,708.33 890.90,709.19"/>
    </edge>
    <edge id=":V0023_3" function="internal">
        <lane id=":V0023_3_0" index="0" speed="18.00" length="16.14" shape="896.60,703.53 895.36,719.62"/>
    </edge>
    <edge id=":V0023_4" function="internal">
        <lane id=":V0023_4_0" index="0" speed="6.82" length="8.89" shape="896.60,703.53 896.10,705.87 894.98,707.59 893.24,708.70 890.90,709.19"/>
    </edge>
    <edge id=":V0024_0" function="internal">
        <lane id=":V0024_0_0" index="0" speed="6.27" length="9.04" shape="308.27,756.29 305.80,756.83 304.20,758.02 303.44,759.88 303.54,762.39"/>
    </edge>
    <edge id=":V0024_1" function="internal">
        <lane id=":V0024_1_0" index="0" speed="16.00" length="15.94" shape="308.04,753.10 302.95,752.96 299.08,752.12 295.77,751.25 292.32,750.99"/>
    </edge>
    <edge id=":V0024_2" function="internal">
        <lane id=":V0024_2_0" index="0" speed="18.50" length="18.39" shape="297.04,744.89 300.40,762.98"/>
    </edge>
    <edge id=":V0024_3" function="internal">
        <lane id=":V0024_3_0" index="0" speed="6.27" length="9.04" shape="297.04,744.89 297.14,747.41 296.39,749.26 294.78,750.46 292.32,750.99"/>
    </edge>
    <edge id=":V0025_0" function="internal">
        <lane id=":V0025_0_0" index="0" speed="6.82" length="9.21" shape="370.70,864.33 368.43,864.15 366.51,864.83 364.95,866.38 363.74,868.79"/>
    </edge>
    <edge id=":V0025_1" function="internal">
        <lane id=":V0025_1_0" index="0" speed="10.00" length="26.12" shape="370.70,864.33 345.36,857.98"/>
    </edge>
    <edge id=":V0025_2" function="internal">
        <lane id=":V0025_2_0" index="0" speed="9.96" length="22.67" shape="370.70,864.33 361.90,861.79 355.81,859.23 352.41,856.68 351.72,854.11"/>
        <lane id=":V0025_2_1" index="1" speed="9.30" length="19.64" shape="370.70,864.33 363.26,862.13 358.13,859.82 355.32,857.42 354.82,854.91"/>
        <lane id=":V0025_2_2" index="2" speed="8.60" length="16.64" shape="370.70,864.33 364.62,862.47 360.46,860.41 358.23,858.16 357.92,855.72"/>
    </edge>
    <edge id=":V0025_5" function="internal">
        <lane id=":V0025_5_0" index="0" speed="25.00" length="10.78" shape="364.48,857.42 360.73,867.69"/>
        <lane id=":V0025_5_1" index="1" speed="25.00" length="10.78" shape="361.37,856.61 357.72,866.59"/>
    </edge>
    <edge id=":V0025_7" function="internal">
        <lane id=":V0025_7_0" index="0" speed="9.09" length="17.13" shape="361.37,856.61 359.69,858.55 356.47,859.42 351.69,859.23 345.36,857.98"/>
    </edge>
    <edge id=":V0025_8" function="internal">
        <lane id=":V0025_8_0" index="0" speed="3.83" length="5.20" shape="361.37,856.61 360.17,857.68 359.20,857.89 358.45,857.23 357.92,855.72"/>
    </edge>
    <edge id=":V0026_0" function="internal">
        <lane id=":V0026_0_0" index="0" speed="9.54" length="15.11" shape="311.97,807.78 313.14,810.58 315.49,812.84 319.04,814.54 323.78,815.71"/>
    </edge>
    <edge id=":V0026_1" function="internal">
        <lane id=":V0026_1_0" index="0" speed="14.50" length="19.54" shape="311.97,807.78 313.52,813.36 315.31,816.98 317.10,820.60 318.64,826.18"/>
        <lane id=":V0026_1_1" index="1" speed="14.50" length="19.54" shape="308.82,808.37 310.37,813.95 312.16,817.57 313.95,821.19 315.49,826.77"/>
        <lane id=":V0026_1_2" index="2" speed="14.50" length="19.54" shape="308.82,808.37 312.35,827.35"/>
    </edge>
    <edge id=":V0026_4" function="internal">
        <lane id=":V0026_4_0" index="0" speed="8.00" length="19.88" shape="304.74,812.53 323.78,815.71"/>
        <lane id=":V0026_4_1" index="1" speed="8.00" length="19.88" shape="304.74,812.53 310.34,813.97 314.00,815.70 317.65,817.42 323.26,818.86"/>
        <lane id=":V0026_4_2" index="2" speed="8.00" length="19.88" shape="304.74,812.53 310.37,814.48 313.73,817.28 317.10,820.07 322.73,822.02"/>
    </edge>
    <edge id=":V0026_7" function="internal">
        <lane id=":V0026_7_0" index="0" speed="9.50" length="16.96" shape="304.21,815.69 308.49,816.97 311.79,819.25 314.13,822.52 315.49,826.77"/>
        <lane id=":V0026_7_1" index="1" speed="8.89" length="13.02" shape="303.68,818.84 306.97,819.83 309.51,821.58 311.30,824.09 312.35,827.35"/>
    </edge>
    <edge id=":V0027_0" function="internal">
        <lane id=":V0027_0_0" index="0" speed="8.01" length="12.21" shape="247.07,344.13 249.38,347.15 251.81,349.01 254.36,349.69 257.02,349.21"/>
    </edge>
    <edge id=":V0027_1" function="internal">
        <lane id=":V0027_1_0" index="0" speed="13.50" length="17.01" shape="247.07,344.13 256.09,358.55"/>
    </edge>
    <edge id=":V0027_2" function="internal">
        <lane id=":V0027_2_0" index="0" speed="12.00" length="12.26" shape="244.97,350.50 248.44,349.67 250.99,349.85 253.55,350.03 257.02,349.21"/>
        <lane id=":V0027_2_1" index="1" speed="12.00" length="12.26" shape="246.13,353.48 249.61,352.65 252.16,352.83 254.72,353.01 258.19,352.19"/>
    </edge>
    <edge id=":V0027_4" function="internal">
        <lane id=":V0027_4_0" index="0" speed="7.28" length="9.91" shape="247.30,356.46 250.10,355.70 252.50,355.80 254.50,356.75 256.09,358.55"/>
    </edge>
    <edge id=":V0028_0" function="internal">
        <lane id=":V0028_0_0" index="0" speed="24.00" length="33.98" shape="499.59,257.51 503.79,254.47 509.29,248.76 515.90,241.40 523.43,233.41"/>
    </edge>
    <edge id=":V0028_1" function="internal">
        <lane id=":V0028_1_0" index="0" speed="18.50" length="34.62" shape="499.59,257.51 505.09,254.82 513.34,250.40 522.47,245.64 530.58,241.92"/>
        <lane id=":V0028_1_1" index="1" speed="18.50" length="34.62" shape="499.59,257.51 531.75,244.90"/>
    </edge>
    <edge id=":V0028_3" function="internal">
        <lane id=":V0028_3_0" index="0" speed="22.00" length="34.84" shape="498.83,258.09 523.43,233.41"/>
        <lane id=":V0028_3_1" index="1" speed="22.00" length="34.84" shape="501.10,260.35 525.70,235.67"/>
        <lane id=":V0028_3_2" index="2" speed="22.00" length="34.84" shape="503.37,262.61 527.97,237.93"/>
    </edge>
    <edge id=":V0028_6" function="internal">
        <lane id=":V0028_6_0" index="0" speed="16.50" length="33.74" shape="503.37,262.61 510.96,255.87 518.04,251.14 524.88,247.71 531.75,244.90"/>
    </edge>
    <edge id=":V0028_7" function="internal">
        <lane id=":V0028_7_0" index="0" speed="18.45" length="41.89" shape="502.20,270.87 505.61,260.38 510.25,250.68 516.18,241.70 523.43,233.41"/>
        <lane id=":V0028_7_1" index="1" speed="18.45" length="41.89" shape="505.30,271.67 508.58,261.41 512.93,252.21 518.57,243.74 525.70,235.67"/>
        <lane id=":V0028_7_2" index="2" speed="18.45" length="41.89" shape="508.39,272.47 511.54,262.44 515.61,253.74 520.97,245.77 527.97,237.93"/>
    </edge>
    <edge id=":V0028_10" function="internal">
        <lane id=":V0028_10_0" index="0" speed="12.95" length="37.56" shape="508.39,272.47 511.84,263.07 516.88,255.34 523.51,249.28 531.75,244.90"/>
    </edge>
    <edge id=":V0029_0" function="internal">
        <lane id=":V0029_0_0" index="0" speed="10.41" length="18.01" shape="899.12,774.55 895.49,776.32 892.76,779.28 890.95,783.42 890.04,788.77"/>
    </edge>
    <edge id=":V0029_1" function="internal">
        <lane id=":V0029_1_0" index="0" speed="15.00" length="16.58" shape="899.12,774.55 896.13,776.45 893.63,779.45 890.47,782.65 885.54,785.10"/>