<?xml version="1.0" encoding="UTF-8"?>

<!-- generated on 2023-06-26 02:05:28 by Eclipse SUMO netconvert Version 1.16.0
<configuration xmlns:xsi="http://www.w3.org/2001/XMLSchema-instance" xsi:noNamespaceSchemaLocation="http://sumo.dlr.de/xsd/netconvertConfiguration.xsd">

    <input>
        <node-files value="data/simulationConfigurations/tests/2\2.nod.xml"/>
        <edge-files value="data/simulationConfigurations/tests/2\2.edg.xml"/>
    </input>

    <output>
        <output-file value="data/simulationConfigurations/tests/2\2.net.xml"/>
    </output>

</configuration>
-->

<net version="1.16" junctionCornerDetail="5" limitTurnSpeed="5.50" xmlns:xsi="http://www.w3.org/2001/XMLSchema-instance" xsi:noNamespaceSchemaLocation="http://sumo.dlr.de/xsd/net_file.xsd">

    <location netOffset="-45.90,-12.73" convBoundary="0.00,0.00,939.25,1052.44" origBoundary="45.90,12.73,985.15,1065.17" projParameter="!"/>

    <edge id=":V0001_0" function="internal">
        <lane id=":V0001_0_0" index="0" speed="7.04" length="21.85" shape="891.89,909.23 898.24,914.15 900.91,915.26 899.89,912.56 895.18,906.05"/>
    </edge>
    <edge id=":V0001_1" function="internal">
        <lane id=":V0001_1_0" index="0" speed="7.05" length="19.44" shape="891.89,909.23 897.26,913.00 900.22,913.35 900.76,910.28 898.88,903.78"/>
    </edge>
    <edge id=":V0001_2" function="internal">
        <lane id=":V0001_2_0" index="0" speed="10.43" length="30.49" shape="909.84,931.82 910.48,929.61 908.25,924.58 903.15,916.72 895.18,906.05"/>
    </edge>
    <edge id=":V0001_3" function="internal">
        <lane id=":V0001_3_0" index="0" speed="12.11" length="33.71" shape="910.98,934.81 911.39,932.42 910.01,926.27 906.84,916.34 901.88,902.65"/>
        <lane id=":V0001_3_1" index="1" speed="12.31" length="34.91" shape="910.98,934.81 912.70,931.92 912.26,925.41 909.65,915.28 904.87,901.52"/>
    </edge>
    <edge id=":V0002_0" function="internal">
        <lane id=":V0002_0_0" index="0" speed="8.50" length="45.15" shape="682.14,327.67 679.43,316.85 678.50,305.62 678.26,294.22 677.62,282.91"/>
    </edge>
    <edge id=":V0002_1" function="internal">
        <lane id=":V0002_1_0" index="0" speed="8.65" length="32.04" shape="685.13,326.54 682.27,316.15 681.24,306.20 682.77,300.45 687.61,302.64"/>
        <lane id=":V0002_1_1" index="1" speed="7.91" length="26.45" shape="688.13,325.42 684.98,316.55 682.56,308.18 682.19,303.27 685.24,304.79"/>
    </edge>
    <edge id=":V0002_3" function="internal">
        <lane id=":V0002_3_0" index="0" speed="8.50" length="44.50" shape="671.46,327.63 672.49,318.71 672.70,307.53 672.24,295.39 671.26,283.59"/>
        <lane id=":V0002_3_1" index="1" speed="8.50" length="44.50" shape="674.65,327.99 675.68,318.97 675.89,307.54 675.42,295.16 674.44,283.25"/>
    </edge>
    <edge id=":V0002_5" function="internal">
        <lane id=":V0002_5_0" index="0" speed="10.29" length="35.83" shape="674.65,327.99 677.58,315.43 681.12,305.07 685.27,299.29 689.98,300.49"/>
    </edge>
    <edge id=":V0002_6" function="internal">
        <lane id=":V0002_6_0" index="0" speed="11.00" length="44.55" shape="670.89,327.57 672.29,316.44 673.81,305.41 674.76,294.37 674.44,283.25"/>
    </edge>
    <edge id=":V0002_7" function="internal">
        <lane id=":V0002_7_0" index="0" speed="9.92" length="34.93" shape="674.07,327.93 675.68,316.00 678.32,305.91 682.21,300.51 687.61,302.64"/>
        <lane id=":V0002_7_1" index="1" speed="8.82" length="27.31" shape="677.25,328.29 678.47,318.17 680.16,309.64 682.39,304.56 685.24,304.79"/>
    </edge>
    <edge id=":V0003_0" function="internal">
        <lane id=":V0003_0_0" index="0" speed="11.77" length="26.72" shape="938.86,574.56 941.88,579.58 942.49,585.33 940.70,591.82 936.50,599.03"/>
        <lane id=":V0003_0_1" index="1" speed="10.71" length="21.95" shape="936.83,577.09 939.04,580.98 939.28,585.62 937.57,591.02 933.89,597.17"/>
    </edge>
    <edge id=":V0003_2" function="internal">
        <lane id=":V0003_2_0" index="0" speed="12.00" length="52.91" shape="936.83,577.09 938.20,584.56 930.11,591.35 915.51,597.43 897.33,602.76"/>
        <lane id=":V0003_2_1" index="1" speed="12.00" length="50.28" shape="936.83,577.09 937.15,583.15 928.77,589.01 914.34,594.56 896.53,599.67"/>
    </edge>
    <edge id=":V0003_4" function="internal">
        <lane id=":V0003_4_0" index="0" speed="11.84" length="47.91" shape="934.81,579.63 935.68,585.92 927.38,590.62 913.08,594.00 895.91,596.31"/>
        <lane id=":V0003_4_1" index="1" speed="11.49" length="45.04" shape="934.81,579.63 934.63,584.39 926.21,588.13 912.29,590.99 895.58,593.13"/>
    </edge>
    <edge id=":V0003_6" function="internal">
        <lane id=":V0003_6_0" index="0" speed="4.23" length="6.65" shape="934.81,579.63 935.43,581.58 935.17,582.83 934.01,583.36 931.96,583.18"/>
    </edge>
    <edge id=":V0004_0" function="internal">
        <lane id=":V0004_0_0" index="0" speed="9.10" length="32.53" shape="474.62,230.39 472.14,230.07 471.92,234.77 473.95,244.51 478.24,259.27"/>
    </edge>
    <edge id=":V0004_1" function="internal">
        <lane id=":V0004_1_0" index="0" speed="9.92" length="36.70" shape="476.60,227.88 473.19,227.30 471.72,232.48 472.20,243.43 474.62,260.15"/>
        <lane id=":V0004_1_1" index="1" speed="10.98" length="45.41" shape="478.59,225.37 472.39,223.04 469.13,228.15 468.83,240.70 471.47,260.70"/>
    </edge>
    <edge id=":V0005_0" function="internal">
        <lane id=":V0005_0_0" index="0" speed="5.48" length="10.69" shape="625.68,1034.72 623.86,1037.82 623.81,1039.57 625.51,1039.95 628.97,1038.97"/>
        <lane id=":V0005_0_1" index="1" speed="7.70" length="22.86" shape="623.08,1032.86 619.19,1039.50 619.06,1043.23 622.70,1044.05 630.11,1041.96"/>
    </edge>
    <edge id=":V0005_2" function="internal">
        <lane id=":V0005_2_0" index="0" speed="7.60" length="22.85" shape="623.08,1032.86 618.35,1036.13 613.29,1035.22 609.43,1031.14 608.27,1024.90"/>
    </edge>
    <edge id=":V0005_3" function="internal">
        <lane id=":V0005_3_0" index="0" speed="3.55" length="4.15" shape="608.68,1024.95 608.65,1023.39 608.57,1022.87 608.44,1023.37 608.27,1024.90"/>
    </edge>
    <edge id=":V0005_4" function="internal">
        <lane id=":V0005_4_0" index="0" speed="10.89" length="34.70" shape="608.68,1024.95 610.04,1035.45 614.07,1041.79 620.76,1043.96 630.11,1041.96"/>
    </edge>
    <edge id=":V0005_5" function="internal">
        <lane id=":V0005_5_0" index="0" speed="6.23" length="16.34" shape="604.02,1025.05 605.30,1030.86 606.43,1032.77 607.42,1030.79 608.27,1024.90"/>
    </edge>
    <edge id=":V0005_6" function="internal">
        <lane id=":V0005_6_0" index="0" speed="11.86" length="37.24" shape="604.02,1025.05 607.29,1035.56 612.73,1041.88 620.34,1044.01 630.11,1041.96"/>
    </edge>
    <edge id=":V0006_0" function="internal">
        <lane id=":V0006_0_0" index="0" speed="5.65" length="10.06" shape="263.91,100.19 261.81,98.13 260.06,97.81 258.66,99.24 257.62,102.41"/>
    </edge>
    <edge id=":V0006_1" function="internal">
        <lane id=":V0006_1_0" index="0" speed="9.04" length="25.63" shape="266.44,98.23 260.84,92.66 255.84,91.08 251.43,93.49 247.61,99.90"/>
    </edge>
    <edge id=":V0006_2" function="internal">
        <lane id=":V0006_2_0" index="0" speed="11.82" length="22.09" shape="260.04,80.41 259.30,81.82 258.13,85.85 256.53,92.49 254.49,101.74"/>
        <lane id=":V0006_2_1" index="1" speed="12.04" length="22.95" shape="260.04,80.41 257.83,82.04 255.64,86.03 253.49,92.37 251.36,101.07"/>
    </edge>
    <edge id=":V0006_4" function="internal">
        <lane id=":V0006_4_0" index="0" speed="13.64" length="23.53" shape="260.04,80.41 257.52,81.98 254.61,85.75 251.30,91.72 247.61,99.90"/>
    </edge>
    <edge id=":V0007_0" function="internal">
        <lane id=":V0007_0_0" index="0" speed="6.00" length="48.07" shape="641.92,9.20 644.32,27.02 646.47,33.05 648.35,27.28 649.97,9.73"/>
    </edge>
    <edge id=":V0007_1" function="internal">
        <lane id=":V0007_1_0" index="0" speed="7.31" length="12.51" shape="645.16,9.41 644.29,6.52 642.41,4.71 639.53,3.99 635.63,4.34"/>
    </edge>
    <edge id=":V0008_0" function="internal">
        <lane id=":V0008_0_0" index="0" speed="5.58" length="9.37" shape="619.57,675.02 616.90,676.09 615.77,677.50 616.19,679.26 618.15,681.36"/>
    </edge>
    <edge id=":V0008_1" function="internal">
        <lane id=":V0008_1_0" index="0" speed="8.52" length="13.10" shape="619.57,675.02 614.44,676.48 610.78,677.84 608.58,679.07 607.85,680.20"/>
    </edge>
    <edge id=":V0008_2" function="internal">
        <lane id=":V0008_2_0" index="0" speed="10.74" length="20.11" shape="618.76,671.92 611.92,671.05 608.96,664.82 608.93,658.51"/>
    </edge>
    <edge id=":V0008_12" function="internal">
        <lane id=":V0008_12_0" index="0" speed="10.74" length="15.50" shape="608.93,658.51 608.91,654.95 610.76,643.16"/>
    </edge>
    <edge id=":V0008_3" function="internal">
        <lane id=":V0008_3_0" index="0" speed="4.37" length="7.35" shape="609.77,643.02 609.66,645.76 609.79,646.69 610.16,645.82 610.76,643.16"/>
    </edge>
    <edge id=":V0008_4" function="internal">
        <lane id=":V0008_4_0" index="0" speed="7.00" length="40.40" shape="609.77,643.02 609.59,656.59 610.92,667.50 613.78,675.76 618.15,681.36"/>
    </edge>
    <edge id=":V0008_5" function="internal">
        <lane id=":V0008_5_0" index="0" speed="9.00" length="37.22" shape="609.77,643.02 607.85,680.20"/>
    </edge>
    <edge id=":V0008_6" function="internal">
        <lane id=":V0008_6_0" index="0" speed="5.76" length="12.45" shape="605.21,643.47 606.81,647.44 608.26,648.71 609.58,647.28 610.76,643.16"/>
    </edge>
    <edge id=":V0008_7" function="internal">
        <lane id=":V0008_7_0" index="0" speed="13.50" length="40.42" shape="602.16,644.42 606.01,655.78 610.39,667.06 614.66,676.25 618.15,681.36"/>
    </edge>
    <edge id=":V0008_8" function="internal">
        <lane id=":V0008_8_0" index="0" speed="15.50" length="35.95" shape="599.10,645.38 602.36,656.16 605.15,666.28 607.11,674.66 607.85,680.20"/>
    </edge>
    <edge id=":V0008_9" function="internal">
        <lane id=":V0008_9_0" index="0" speed="12.19" length="28.54" shape="600.28,668.85 602.92,667.20 605.55,662.37 608.16,654.35 610.76,643.16"/>
    </edge>
    <edge id=":V0008_10" function="internal">
        <lane id=":V0008_10_0" index="0" speed="15.00" length="22.61" shape="600.28,668.85 606.75,670.27 611.52,673.83 615.14,678.03 618.15,681.36"/>
    </edge>
    <edge id=":V0008_11" function="internal">
        <lane id=":V0008_11_0" index="0" speed="7.55" length="10.08" shape="600.35,672.05 603.62,672.50 605.97,674.01 607.38,676.57 607.51,677.62"/>
    </edge>
    <edge id=":V0008_13" function="internal">
        <lane id=":V0008_13_0" index="0" speed="7.55" length="2.60" shape="607.51,677.62 607.85,680.20"/>
    </edge>
    <edge id=":V0009_0" function="internal">
        <lane id=":V0009_0_0" index="0" speed="11.44" length="64.29" shape="11.76,686.55 35.68,683.68 43.64,681.83 35.63,680.98 11.66,681.14"/>
        <lane id=":V0009_0_1" index="1" speed="7.49" length="26.27" shape="11.76,686.55 21.54,685.38 24.79,684.62 21.52,684.27 11.72,684.34"/>
    </edge>
    <edge id=":V0009_2" function="internal">
        <lane id=":V0009_2_0" index="0" speed="5.79" length="9.15" shape="7.63,672.12 6.94,674.72 7.37,676.55 8.92,677.63 11.59,677.94"/>
    </edge>
    <edge id=":V0011_0" function="internal">
        <lane id=":V0011_0_0" index="0" speed="13.00" length="32.01" shape="727.82,430.92 724.48,425.51 718.56,417.95 712.23,410.68 707.67,406.17"/>
    </edge>
    <edge id=":V0011_1" function="internal">
        <lane id=":V0011_1_0" index="0" speed="8.50" length="31.62" shape="727.82,430.92 725.16,426.69 720.63,420.90 715.45,413.36 710.81,403.87"/>
        <lane id=":V0011_1_1" index="1" speed="8.50" length="31.62" shape="727.82,430.92 725.63,426.51 722.13,420.34 717.97,412.41 713.80,402.74"/>
        <lane id=":V0011_1_2" index="2" speed="8.50" length="31.62" shape="727.82,430.92 716.80,401.62"/>
    </edge>
    <edge id=":V0011_4" function="internal">
        <lane id=":V0011_4_0" index="0" speed="22.00" length="32.37" shape="730.96,428.62 724.56,422.94 717.84,416.23 711.86,410.11 707.67,406.17"/>
    </edge>
    <edge id=":V0011_5" function="internal">
        <lane id=":V0011_5_0" index="0" speed="17.50" length="30.76" shape="732.94,426.11 727.38,421.82 722.41,417.37 717.92,411.45 713.80,402.74"/>
        <lane id=":V0011_5_1" index="1" speed="17.50" length="29.80" shape="732.94,426.11 727.83,421.60 723.86,416.69 720.39,410.36 716.80,401.62"/>
    </edge>
    <edge id=":V0012_0" function="internal">
        <lane id=":V0012_0_0" index="0" speed="8.05" length="17.55" shape="807.70,793.65 804.08,790.16 800.51,789.04 796.99,790.30 793.52,793.95"/>
    </edge>
    <edge id=":V0012_1" function="internal">
        <lane id=":V0012_1_0" index="0" speed="11.00" length="18.57" shape="807.70,793.65 804.71,791.44 800.69,789.86 796.15,787.60 791.58,783.36"/>
        <lane id=":V0012_1_1" index="1" speed="11.00" length="18.57" shape="807.70,793.65 805.07,791.09 801.86,788.75 798.17,785.80 794.11,781.40"/>
        <lane id=":V0012_1_2" index="2" speed="11.00" length="18.57" shape="807.70,793.65 796.63,779.43"/>
    </edge>
    <edge id=":V0012_4" function="internal">
        <lane id=":V0012_4_0" index="0" speed="6.00" length="19.34" shape="809.19,782.99 804.81,787.42 800.36,789.86 796.41,791.61 793.52,793.95"/>
    </edge>
    <edge id=":V0012_5" function="internal">
        <lane id=":V0012_5_0" index="0" speed="7.50" length="15.43" shape="806.58,781.14 803.53,784.34 800.43,785.45 797.29,784.47 794.11,781.40"/>
        <lane id=":V0012_5_1" index="1" speed="5.97" length="9.09" shape="803.98,779.28 802.18,781.16 800.36,781.82 798.51,781.24 796.63,779.43"/>
    </edge>
    <edge id=":V0013_0" function="internal">
        <lane id=":V0013_0_0" index="0" speed="10.50" length="17.36" shape="649.96,663.81 646.64,665.19 643.41,667.16 639.50,669.32 634.14,671.23"/>
        <lane id=":V0013_0_1" index="1" speed="10.50" length="17.36" shape="649.96,663.81 633.33,668.13"/>
    </edge>
    <edge id=":V0013_2" function="internal">
        <lane id=":V0013_2_0" index="0" speed="5.88" length="9.11" shape="649.96,663.81 647.33,664.11 645.55,663.43 644.60,661.77 644.49,659.13"/>
    </edge>
    <edge id=":V0013_3" function="internal">
        <lane id=":V0013_3_0" index="0" speed="5.88" length="9.11" shape="639.61,675.91 639.50,673.27 638.55,671.61 636.77,670.93 634.14,671.23"/>
    </edge>
    <edge id=":V0013_4" function="internal">
        <lane id=":V0013_4_0" index="0" speed="15.50" length="17.18" shape="642.79,676.22 644.49,659.13"/>
    </edge>
    <edge id=":V0014_0" function="internal">
        <lane id=":V0014_0_0" index="0" speed="7.90" length="12.22" shape="547.31,660.55 548.32,664.64 549.73,667.55 551.54,669.28 553.74,669.82"/>
    </edge>
    <edge id=":V0014_1" function="internal">
        <lane id=":V0014_1_0" index="0" speed="21.50" length="17.43" shape="544.15,661.10 544.62,666.73 544.27,671.14 543.80,674.88 543.92,678.46"/>
    </edge>
    <edge id=":V0014_2" function="internal">
        <lane id=":V0014_2_0" index="0" speed="15.00" length="17.47" shape="536.61,666.98 541.73,667.37 545.17,668.40 548.62,669.43 553.74,669.82"/>
        <lane id=":V0014_2_1" index="1" speed="15.00" length="17.47" shape="536.67,670.18 541.79,670.57 545.24,671.60 548.69,672.62 553.81,673.02"/>
    </edge>
    <edge id=":V0014_4" function="internal">
        <lane id=":V0014_4_0" index="0" speed="7.11" length="9.72" shape="536.74,673.37 539.54,673.64 541.67,674.58 543.13,676.19 543.92,678.46"/>
    </edge>
    <edge id=":V0015_0" function="internal">
        <lane id=":V0015_0_0" index="0" speed="5.90" length="8.33" shape="606.15,630.16 604.10,630.74 602.89,631.97 602.52,633.84 602.99,636.36"/>
        <lane id=":V0015_0_1" index="1" speed="7.51" length="14.27" shape="605.82,626.97 602.14,627.97 599.93,630.03 599.19,633.14 599.93,637.32"/>
    </edge>
    <edge id=":V0015_2" function="internal">
        <lane id=":V0015_2_0" index="0" speed="14.00" length="18.92" shape="605.48,623.79 599.96,624.88 596.33,626.37 592.70,627.86 587.18,628.94"/>
        <lane id=":V0015_2_1" index="1" speed="14.00" length="18.92" shape="605.48,623.79 586.85,625.76"/>
    </edge>
    <edge id=":V0015_4" function="internal">
        <lane id=":V0015_4_0" index="0" speed="18.50" length="19.72" shape="597.09,617.54 602.99,636.36"/>
        <lane id=":V0015_4_1" index="1" speed="18.50" length="19.72" shape="594.04,618.50 599.93,637.32"/>
        <lane id=":V0015_4_2" index="2" speed="18.50" length="19.72" shape="590.99,619.45 596.88,638.27"/>
    </edge>
    <edge id=":V0015_7" function="internal">
        <lane id=":V0015_7_0" index="0" speed="6.12" length="9.06" shape="590.99,619.45 591.39,621.98 590.84,623.87 589.32,625.13 586.85,625.76"/>
    </edge>
    <edge id=":V0016_0" function="internal">
        <lane id=":V0016_0_0" index="0" speed="8.94" length="16.94" shape="785.46,805.25 782.86,809.82 781.95,813.87 782.74,817.41 785.22,820.43"/>
    </edge>
    <edge id=":V0016_1" function="internal">
        <lane id=":V0016_1_0" index="0" speed="11.50" length="17.70" shape="785.46,805.25 783.77,808.47 782.52,812.12 780.84,816.37 777.88,821.38"/>
        <lane id=":V0016_1_1" index="1" speed="11.50" length="17.70" shape="785.46,805.25 775.28,819.52"/>
    </edge>
    <edge id=":V0016_3" function="internal">
        <lane id=":V0016_3_0" index="0" speed="12.50" length="16.19" shape="778.12,806.20 781.27,810.12 782.52,814.02 783.35,817.57 785.22,820.43"/>
    </edge>
    <edge id=":V0016_4" function="internal">
        <lane id=":V0016_4_0" index="0" speed="8.29" length="14.42" shape="776.07,808.66 778.75,811.58 779.94,814.68 779.65,817.94 777.88,821.38"/>
        <lane id=":V0016_4_1" index="1" speed="6.85" length="9.54" shape="774.03,811.11 775.81,813.06 776.61,815.11 776.43,817.26 775.28,819.52"/>
    </edge>
    <edge id=":V0017_0" function="internal">
        <lane id=":V0017_0_0" index="0" speed="5.88" length="10.51" shape="634.05,352.14 631.59,350.77 629.76,351.04 628.55,352.94 627.96,356.48"/>
    </edge>
    <edge id=":V0017_1" function="internal">
        <lane id=":V0017_1_0" index="0" speed="18.50" length="16.59" shape="634.05,352.14 629.90,349.50 626.65,348.34 623.40,347.18 619.26,344.54"/>
        <lane id=":V0017_1_1" index="1" speed="18.50" length="16.59" shape="636.03,349.63 631.88,346.99 628.63,345.83 625.39,344.67 621.24,342.03"/>
        <lane id=":V0017_1_2" index="2" speed="18.50" length="16.59" shape="636.03,349.63 623.22,339.52"/>
    </edge>
    <edge id=":V0017_4" function="internal">
        <lane id=":V0017_4_0" index="0" speed="6.50" length="19.67" shape="629.20,336.85 627.96,356.48"/>
    </edge>
    <edge id=":V0017_5" function="internal">
        <lane id=":V0017_5_0" index="0" speed="6.56" length="13.42" shape="629.20,336.85 628.45,341.27 626.87,343.61 624.46,343.86 621.24,342.03"/>
        <lane id=":V0017_5_1" index="1" speed="5.59" length="9.34" shape="629.20,336.85 628.66,339.66 627.48,341.04 625.67,340.99 623.22,339.52"/>
    </edge>
    <edge id=":V0018_0" function="internal">
        <lane id=":V0018_0_0" index="0" speed="13.00" length="14.29" shape="629.68,570.14 620.91,558.86"/>
        <lane id=":V0018_0_1" index="1" speed="13.00" length="14.29" shape="632.21,568.17 623.43,556.90"/>
    </edge>
    <edge id=":V0018_2" function="internal">
        <lane id=":V0018_2_0" index="0" speed="11.97" length="15.13" shape="632.21,568.17 630.14,564.89 628.89,561.42 628.46,557.76 628.86,553.90"/>
    </edge>
    <edge id=":V0018_3" function="internal">
        <lane id=":V0018_3_0" index="0" speed="6.50" length="10.70" shape="622.22,570.52 622.27,568.50 621.64,566.21 620.35,563.65 618.38,560.83"/>
    </edge>
    <edge id=":V0018_4" function="internal">
        <lane id=":V0018_4_0" index="0" speed="13.00" length="17.60" shape="622.22,570.52 625.72,553.26"/>
        <lane id=":V0018_4_1" index="1" speed="13.00" length="17.60" shape="625.36,571.15 628.86,553.90"/>
    </edge>
    <edge id=":V0019_0" function="internal">
        <lane id=":V0019_0_0" index="0" speed="5.60" length="9.32" shape="840.63,748.93 839.30,746.42 837.76,745.44 836.03,746.00 834.10,748.08"/>
    </edge>
    <edge id=":V0019_1" function="internal">
        <lane id=":V0019_1_0" index="0" speed="14.50" length="26.01" shape="840.63,748.93 831.47,724.59"/>
        <lane id=":V0019_1_1" index="1" speed="14.50" length="26.01" shape="843.62,747.81 834.47,723.46"/>
        <lane id=":V0019_1_2" index="2" speed="14.50" length="26.01" shape="846.62,746.68 837.46,722.34"/>
    </edge>
    <edge id=":V0019_4" function="internal">
        <lane id=":V0019_4_0" index="0" speed="7.00" length="26.17" shape="846.60,725.05 843.26,730.58 841.02,735.62 838.44,741.13 834.10,748.08"/>
        <lane id=":V0019_4_1" index="1" speed="7.00" length="26.17" shape="843.99,723.19 840.66,728.72 838.42,733.76 835.84,739.27 831.49,746.22"/>
        <lane id=":V0019_4_2" index="2" speed="7.00" length="26.17" shape="843.99,723.19 828.89,744.36"/>
    </edge>
    <edge id=":V0019_7" function="internal">
        <lane id=":V0019_7_0" index="0" speed="6.56" length="13.36" shape="843.99,723.19 841.03,726.52 838.46,727.68 836.27,726.66 834.47,723.46"/>
        <lane id=":V0019_7_1" index="1" speed="5.60" length="9.32" shape="843.99,723.19 842.06,725.28 840.33,725.83 838.79,724.85 837.46,722.34"/>
    </edge>
    <edge id=":V0020_0" function="internal">
        <lane id=":V0020_0_0" index="0" speed="7.50" length="11.51" shape="695.16,659.47 692.75,656.85 690.33,655.16 687.90,654.40 685.45,654.57"/>
    </edge>
    <edge id=":V0020_1" function="internal">
        <lane id=":V0020_1_0" index="0" speed="16.00" length="12.89" shape="695.16,659.47 687.24,649.30"/>
        <lane id=":V0020_1_1" index="1" speed="16.00" length="12.89" shape="697.68,657.50 689.77,647.34"/>
        <lane id=":V0020_1_2" index="2" speed="16.00" length="12.89" shape="700.21,655.54 692.29,645.37"/>
    </edge>
    <edge id=":V0020_4" function="internal">
        <lane id=":V0020_4_0" index="0" speed="8.00" length="17.10" shape="702.00,650.27 685.45,654.57"/>
    </edge>
    <edge id=":V0020_5" function="internal">
        <lane id=":V0020_5_0" index="0" speed="9.26" length="13.36" shape="702.00,650.27 698.13,650.89 694.80,650.61 692.02,649.42 689.77,647.34"/>
        <lane id=":V0020_5_1" index="1" speed="8.64" length="11.51" shape="702.00,650.27 699.55,650.44 697.12,649.68 694.70,647.99 692.29,645.37"/>
    </edge>
    <edge id=":V0021_0" function="internal">
        <lane id=":V0021_0_0" index="0" speed="6.20" length="11.78" shape="632.08,692.96 634.51,694.27 636.38,693.73 637.72,691.34 638.50,687.09"/>
    </edge>
    <edge id=":V0021_1" function="internal">
        <lane id=":V0021_1_0" index="0" speed="10.00" length="18.46" shape="632.08,692.96 635.47,694.47 639.71,695.14 644.60,696.35 649.93,699.49"/>
        <lane id=":V0021_1_1" index="1" speed="10.00" length="18.46" shape="632.08,692.96 635.19,694.89 638.80,696.47 643.01,698.54 647.89,701.95"/>
        <lane id=":V0021_1_2" index="2" speed="10.00" length="18.46" shape="632.08,692.96 645.84,704.41"/>
    </edge>
    <edge id=":V0021_4" function="internal">
        <lane id=":V0021_4_0" index="0" speed="5.50" length="19.75" shape="639.75,706.90 639.63,703.10 638.95,698.83 638.35,693.65 638.50,687.09"/>
        <lane id=":V0021_4_1" index="1" speed="5.50" length="19.75" shape="639.75,706.90 641.69,687.40"/>
    </edge>
    <edge id=":V0021_6" function="internal">
        <lane id=":V0021_6_0" index="0" speed="6.56" length="13.38" shape="639.75,706.90 640.66,702.53 642.32,700.25 644.73,700.05 647.89,701.95"/>
        <lane id=":V0021_6_1" index="1" speed="5.60" length="9.33" shape="639.75,706.90 640.39,704.13 641.62,702.79 643.44,702.88 645.84,704.41"/>
    </edge>
    <edge id=":V0022_0" function="internal">
        <lane id=":V0022_0_0" index="0" speed="25.00" length="14.54" shape="655.04,624.99 640.58,626.52"/>
        <lane id=":V0022_0_1" index="1" speed="25.00" length="14.54" shape="654.70,621.81 640.25,623.33"/>
        <lane id=":V0022_0_2" index="2" speed="25.00" length="14.54" shape="654.37,618.62 639.91,620.15"/>
    </edge>
    <edge id=":V0022_3" function="internal">
        <lane id=":V0022_3_0" index="0" speed="6.11" length="9.06" shape="654.37,618.62 651.81,618.53 650.06,617.61 649.14,615.87 649.02,613.31"/>
    </edge>
    <edge id=":V0022_4" function="internal">
        <lane id=":V0022_4_0" index="0" speed="6.40" length="10.06" shape="647.20,631.69 647.01,629.14 645.84,627.43 643.70,626.55 640.58,626.52"/>
    </edge>
    <edge id=":V0022_5" function="internal">
        <lane id=":V0022_5_0" index="0" speed="22.50" length="18.63" shape="647.20,631.69 647.07,627.98 646.36,623.98 645.73,619.15 645.84,613.00"/>
        <lane id=":V0022_5_1" index="1" speed="22.50" length="18.63" shape="647.20,631.69 649.02,613.31"/>
    </edge>
    <edge id=":V0023_0" function="internal">
        <lane id=":V0023_0_0" index="0" speed="6.37" length="9.04" shape="548.32,633.05 545.90,633.67 544.30,634.91 543.55,636.78 543.62,639.28"/>
    </edge>
    <edge id=":V0023_1" function="internal">
        <lane id=":V0023_1_0" index="0" speed="20.00" length="18.05" shape="547.98,629.87 530.04,631.77"/>
    </edge>
    <edge id=":V0023_2" function="internal">
        <lane id=":V0023_2_0" index="0" speed="12.00" length="15.35" shape="537.89,624.99 539.16,629.36 540.75,632.14 542.35,634.91 543.62,639.28"/>
        <lane id=":V0023_2_1" index="1" speed="12.00" length="15.35" shape="534.74,625.54 536.00,629.90 537.60,632.68 539.20,635.46 540.46,639.82"/>
        <lane id=":V0023_2_2" index="2" speed="12.00" length="15.35" shape="534.74,625.54 537.31,640.37"/>
    </edge>
    <edge id=":V0023_5" function="internal">
        <lane id=":V0023_5_0" index="0" speed="6.37" length="9.04" shape="534.74,625.54 534.81,628.04 534.05,629.91 532.46,631.15 530.04,631.77"/>
    </edge>
    <edge id=":V0024_0" function="internal">
        <lane id=":V0024_0_0" index="0" speed="5.85" length="13.65" shape="560.96,487.06 557.75,483.39 556.01,482.52 555.73,484.45 556.91,489.18"/>
        <lane id=":V0024_0_1" index="1" speed="8.67" length="32.45" shape="563.49,485.09 555.86,476.37 551.71,474.31 551.04,478.89 553.86,490.14"/>
    </edge>
    <edge id=":V0024_2" function="internal">
        <lane id=":V0024_2_0" index="0" speed="22.00" length="61.06" shape="566.01,483.13 528.51,434.94"/>
    </edge>
    <edge id=":V0024_3" function="internal">
        <lane id=":V0024_3_0" index="0" speed="22.50" length="61.10" shape="532.56,432.82 553.86,490.14"/>
        <lane id=":V0024_3_1" index="1" speed="22.50" length="61.10" shape="532.56,432.82 550.80,491.09"/>
    </edge>
    <edge id=":V0024_5" function="internal">
        <lane id=":V0024_5_0" index="0" speed="5.85" length="4.88" shape="532.56,432.82 533.75,437.55"/>
    </edge>
    <edge id=":V0024_6" function="internal">
        <lane id=":V0024_6_0" index="0" speed="5.85" length="8.78" shape="533.75,437.55 533.47,439.48 531.72,438.61 528.51,434.94"/>
    </edge>
    <edge id=":V0025_0" function="internal">
        <lane id=":V0025_0_0" index="0" speed="5.72" length="5.86" shape="611.91,629.55 611.33,629.94 610.86,630.96 610.51,632.63 610.29,634.94"/>
    </edge>
    <edge id=":V0025_1" function="internal">
        <lane id=":V0025_1_0" index="0" speed="17.00" length="5.59" shape="611.91,629.55 606.35,630.13"/>
        <lane id=":V0025_1_1" index="1" speed="17.00" length="5.59" shape="611.58,626.36 606.02,626.95"/>
        <lane id=":V0025_1_2" index="2" speed="17.00" length="5.59" shape="611.24,623.18 605.68,623.77"/>
    </edge>
    <edge id=":V0025_4" function="internal">
        <lane id=":V0025_4_0" index="0" speed="7.00" length="17.04" shape="611.37,617.94 610.29,634.94"/>
    </edge>
    <edge id=":V0025_5" function="internal">
        <lane id=":V0025_5_0" index="0" speed="7.70" length="11.39" shape="611.37,617.94 610.83,621.69 609.76,624.45 608.15,626.20 606.02,626.95"/>
        <lane id=":V0025_5_1" index="1" speed="6.91" length="8.98" shape="611.37,617.94 610.89,620.28 609.78,622.03 608.04,623.19 605.68,623.77"/>
    </edge>
    <edge id=":V0026_0" function="internal">
        <lane id=":V0026_0_0" index="0" speed="10.00" length="9.39" shape="665.84,373.15 663.37,371.84 661.31,371.61 659.25,371.39 656.77,370.07"/>
        <lane id=":V0026_0_1" index="1" speed="10.00" length="9.39" shape="665.84,373.15 658.76,367.56"/>
    </edge>
    <edge id=":V0026_2" function="internal">
        <lane id=":V0026_2_0" index="0" speed="7.05" length="6.94" shape="665.84,373.15 665.64,371.97 665.99,369.90 666.52,367.76 666.87,366.37"/>
    </edge>
    <edge id=":V0026_3" function="internal">
        <lane id=":V0026_3_0" index="0" speed="8.03" length="9.19" shape="661.33,377.59 661.30,375.85 660.53,374.02 659.02,372.10 656.77,370.07"/>
        <lane id=":V0026_3_1" index="1" speed="9.36" length="12.71" shape="664.47,378.22 664.51,375.57 663.58,372.91 661.66,370.24 658.76,367.56"/>
    </edge>
    <edge id=":V0026_5" function="internal">
        <lane id=":V0026_5_0" index="0" speed="15.50" length="12.37" shape="664.47,378.22 664.70,374.55 664.10,371.98 663.50,369.41 663.73,365.74"/>
        <lane id=":V0026_5_1" index="1" speed="15.50" length="12.37" shape="664.47,378.22 666.87,366.37"/>
    </edge>
    <edge id=":V0027_0" function="internal">
        <lane id=":V0027_0_0" index="0" speed="23.50" length="9.65" shape="621.71,628.51 612.11,629.53"/>
        <lane id=":V0027_0_1" index="1" speed="23.50" length="9.65" shape="621.37,625.33 611.78,626.34"/>
        <lane id=":V0027_0_2" index="2" speed="23.50" length="9.65" shape="621.03,622.15 611.44,623.16"/>
    </edge>
    <edge id=":V0027_3" function="internal">