<nodes><node id="V0001" x="964.5466666666667" y="946.3199999999999" type="priority" /><node id="V0002" x="727.2666666666667" y="315.6346666666667" type="priority" /><node id="V0003" x="985.1533333333333" y="599.628" type="priority" /><node id="V0004" x="506.85133333333334" y="222.142" type="priority" /><node id="V0005" x="653.0473333333333" y="1065.1666666666667" type="priority" /><node id="V0006" x="300.13933333333335" y="92.67866666666667" type="priority" /><node id="V0007" x="694.88" y="12.728266666666666" type="priority" /><node id="V0008" x="652.1360000000001" y="686.2533333333333" type="priority" /><node id="V0009" x="45.89986666666667" y="698.9133333333334" type="priority" /><node id="V0010" x="217.064" y="481.33" type="priority" /><node id="V0011" x="770.3266666666666" y="430.08133333333336" type="priority" /><node id="V0012" x="846.2533333333333" y="794.3333333333334" type="priority" /><node id="V0013" x="691.5866666666666" y="675.9933333333333" type="priority" /><node id="V0014" x="587.5699999999999" y="687.6" type="priority" /><node id="V0015" x="636.5546666666667" y="636.4773333333334" type="priority" /><node id="V0016" x="822.3066666666667" y="827.9066666666666" type="priority" /><node id="V0017" x="673.2533333333333" y="353.4706666666667" type="priority" /><node id="V0018" x="674.8666666666667" y="574.1306666666666" type="priority" /><node id="V0019" x="886.2666666666667" y="738.2466666666667" type="priority" /><node id="V0020" x="743.6133333333333" y="662.4566666666667" type="priority" /><node id="V0021" x="687.64" y="715.8066666666667" type="priority" /><node id="V0022" x="696.12" y="630.1806666666666" type="priority" /><node id="V0023" x="579.746" y="642.4826666666667" type="priority" /><node id="V0024" x="578.132" y="449.84666666666664" type="priority" /><node id="V0025" x="655.4213333333333" y="634.4833333333333" type="priority" /><node id="V0026" x="713.2066666666667" y="385.0013333333334" type="priority" /><node id="V0027" x="662.788" y="633.7046666666666" type="priority" /><node id="V0028" x="847.58" y="635.4133333333334" type="priority" /><node id="V0029" x="698.6466666666668" y="604.684" type="priority" /><node id="V0030" x="839.8933333333333" y="614.9833333333333" type="priority" /><node id="V0031" x="537.2246666666666" y="397.28866666666664" type="priority" /><node id="V0032" x="660.428" y="555.582" type="priority" /><node id="V0033" x="719.88" y="390.26666666666665" type="priority" /><node id="V0034" x="716.7866666666666" y="627.996" type="priority" /></nodes>