<?xml version="1.0" encoding="UTF-8"?>

<!-- generated on 2023-06-26 02:05:28.659282 by randomTrips.py v1_16_0+0000-94ec4c6cd72
<configuration>
    <end value="1000"/>
    <fringe-factor value="1"/>
    <net-file value="data/simulationConfigurations/tests/2\2.net.xml"/>
    <period value="1.0"/>
    <output-trip-file value="data/simulationConfigurations/tests/2\2.rou.xml"/>
    <prefix value="random_trip_"/>
</configuration>
-->

<routes xmlns:xsi="http://www.w3.org/2001/XMLSchema-instance" xsi:noNamespaceSchemaLocation="http://sumo.dlr.de/xsd/routes_file.xsd">
    <trip id="random_trip_0" depart="0.00" from="E0110" to="E0011"/>
    <trip id="random_trip_1" depart="1.00" from="E0071" to="E0064"/>
    <trip id="random_trip_2" depart="2.00" from="E0121" to="E0115"/>
    <trip id="random_trip_3" depart="3.00" from="E0131" to="E0023"/>
    <trip id="random_trip_4" depart="4.00" from="E0087" to="E0011"/>
    <trip id="random_trip_5" depart="5.00" from="E0064" to="E0096"/>
    <trip id="random_trip_6" depart="6.00" from="E0011" to="E0060"/>
    <trip id="random_trip_7" depart="7.00" from="E0111" to="E0104"/>
    <trip id="random_trip_8" depart="8.00" from="E0064" to="E0107"/>
    <trip id="random_trip_9" depart="9.00" from="E0126" to="E0003"/>
    <trip id="random_trip_10" depart="10.00" from="E0125" to="E0116"/>
    <trip id="random_trip_11" depart="11.00" from="E0080" to="E0054"/>
    <trip id="random_trip_12" depart="12.00" from="E0136" to="E0080"/>
    <trip id="random_trip_13" depart="13.00" from="E0043" to="E0037"/>
    <trip id="random_trip_14" depart="14.00" from="E0128" to="E0108"/>
    <trip id="random_trip_15" depart="15.00" from="E0126" to="E0118"/>
    <trip id="random_trip_16" depart="16.00" from="E0103" to="E0137"/>
    <trip id="random_trip_17" depart="17.00" from="E0084" to="E0104"/>
    <trip id="random_trip_18" depart="18.00" from="E0127" to="E0109"/>
    <trip id="random_trip_19" depart="19.00" from="E0129" to="E0106"/>
    <trip id="random_trip_20" depart="20.00" from="E0117" to="E0017"/>
    <trip id="random_trip_21" depart="21.00" from="E0065" to="E0074"/>
    <trip id="random_trip_22" depart="22.00" from="E0037" to="E0065"/>
    <trip id="random_trip_23" depart="23.00" from="E0043" to="E0071"/>
    <trip id="random_trip_24" depart="24.00" from="E0110" to="E0082"/>
    <trip id="random_trip_25" depart="25.00" from="E0082" to="E0064"/>
    <trip id="random_trip_26" depart="26.00" from="E0067" to="E0134"/>
    <trip id="random_trip_27" depart="27.00" from="E0111" to="E0108"/>
    <trip id="random_trip_28" depart="28.00" from="E0056" to="E0118"/>
    <trip id="random_trip_29" depart="29.00" from="E0054" to="E0084"/>
    <trip id="random_trip_30" depart="30.00" from="E0139" to="E0110"/>
    <trip id="random_trip_31" depart="31.00" from="E0105" to="E0115"/>
    <trip id="random_trip_32" depart="32.00" from="E0128" to="E0123"/>
    <trip id="random_trip_33" depart="33.00" from="E0065" to="E0015"/>
    <trip id="random_trip_34" depart="34.00" from="E0079" to="E0067"/>
    <trip id="random_trip_35" depart="35.00" from="E0064" to="E0135"/>
    <trip id="random_trip_36" depart="36.00" from="E0130" to="E0079"/>
    <trip id="random_trip_37" depart="37.00" from="E0111" to="E0085"/>
    <trip id="random_trip_38" depart="38.00" from="E0133" to="E0093"/>
    <trip id="random_trip_39" depart="39.00" from="E0067" to="E0066"/>
    <trip id="random_trip_40" depart="40.00" from="E0105" to="E0067"/>
    <trip id="random_trip_41" depart="41.00" from="E0107" to="E0132"/>
    <trip id="random_trip_42" depart="42.00" from="E0085" to="E0064"/>
    <trip id="random_trip_43" depart="43.00" from="E0139" to="E0100"/>
    <trip id="random_trip_44" depart="44.00" from="E0043" to="E0017"/>
    <trip id="random_trip_45" depart="45.00" from="E0045" to="E0110"/>
    <trip id="random_trip_46" depart="46.00" from="E0125" to="E0087"/>
    <trip id="random_trip_47" depart="47.00" from="E0023" to="E0084"/>
    <trip id="random_trip_48" depart="48.00" from="E0139" to="E0103"/>
    <trip id="random_trip_49" depart="49.00" from="E0137" to="E0129"/>
    <trip id="random_trip_50" depart="50.00" from="E0003" to="E0118"/>
    <trip id="random_trip_51" depart="51.00" from="E0115" to="E0103"/>
    <trip id="random_trip_52" depart="52.00" from="E0067" to="E0110"/>
    <trip id="random_trip_53" depart="53.00" from="E0045" to="E0092"/>
    <trip id="random_trip_54" depart="54.00" from="E0093" to="E0135"/>
    <trip id="random_trip_55" depart="55.00" from="E0130" to="E0067"/>
    <trip id="random_trip_56" depart="56.00" from="E0096" to="E0056"/>
    <trip id="random_trip_57" depart="57.00" from="E0133" to="E0130"/>
    <trip id="random_trip_58" depart="58.00" from="E0074" to="E0110"/>
    <trip id="random_trip_59" depart="59.00" from="E0108" to="E0054"/>
    <trip id="random_trip_60" depart="60.00" from="E0123" to="E0104"/>
    <trip id="random_trip_61" depart="61.00" from="E0124" to="E0103"/>
    <trip id="random_trip_62" depart="62.00" from="E0003" to="E0079"/>
    <trip id="random_trip_63" depart="63.00" from="E0011" to="E0134"/>
    <trip id="random_trip_64" depart="64.00" from="E0130" to="E0127"/>
    <trip id="random_trip_65" depart="65.00" from="E0077" to="E0017"/>
    <trip id="random_trip_66" depart="66.00" from="E0130" to="E0135"/>
    <trip id="random_trip_67" depart="67.00" from="E0037" to="E0095"/>
    <trip id="random_trip_68" depart="68.00" from="E0023" to="E0122"/>
    <trip id="random_trip_69" depart="69.00" from="E0123" to="E0049"/>
    <trip id="random_trip_70" depart="70.00" from="E0094" to="E0104"/>
    <trip id="random_trip_71" depart="71.00" from="E0067" to="E0130"/>
    <trip id="random_trip_72" depart="72.00" from="E0087" to="E0064"/>
    <trip id="random_trip_73" depart="73.00" from="E0104" to="E0118"/>
    <trip id="random_trip_74" depart="74.00" from="E0060" to="E0077"/>
    <trip id="random_trip_75" depart="75.00" from="E0139" to="E0111"/>
    <trip id="random_trip_76" depart="76.00" from="E0092" to="E0100"/>
    <trip id="random_trip_77" depart="77.00" from="E0049" to="E0065"/>
    <trip id="random_trip_78" depart="78.00" from="E0080" to="E0107"/>
    <trip id="random_trip_79" depart="79.00" from="E0065" to="E0064"/>
    <trip id="random_trip_80" depart="80.00" from="E0023" to="E0110"/>
    <trip id="random_trip_81" depart="81.00" from="E0065" to="E0132"/>
    <trip id="random_trip_82" depart="82.00" from="E0129" to="E0021"/>
    <trip id="random_trip_83" depart="83.00" from="E0065" to="E0113"/>
    <trip id="random_trip_84" depart="84.00" from="E0064" to="E0049"/>
    <trip id="random_trip_85" depart="85.00" from="E0134" to="E0106"/>
    <trip id="random_trip_86" depart="86.00" from="E0094" to="E0124"/>
    <trip id="random_trip_87" depart="87.00" from="E0126" to="E0059"/>
    <trip id="random_trip_88" depart="88.00" from="E0043" to="E0087"/>
    <trip id="random_trip_89" depart="89.00" from="E0087" to="E0094"/>
    <trip id="random_trip_90" depart="90.00" from="E0118" to="E0115"/>
    <trip id="random_trip_91" depart="91.00" from="E0137" to="E0037"/>
    <trip id="random_trip_92" depart="92.00" from="E0085" to="E0080"/>
    <trip id="random_trip_93" depart="93.00" from="E0129" to="E0066"/>
    <trip id="random_trip_94" depart="94.00" from="E0059" to="E0093"/>
    <trip id="random_trip_95" depart="95.00" from="E0087" to="E0071"/>
    <trip id="random_trip_96" depart="96.00" from="E0066" to="E0133"/>
    <trip id="random_trip_97" depart="97.00" from="E0092" to="E0129"/>
    <trip id="random_trip_98" depart="98.00" from="E0104" to="E0017"/>
    <trip id="random_trip_99" depart="99.00" from="E0139" to="E0128"/>
    <trip id="random_trip_100" depart="100.00" from="E0136" to="E0134"/>
    <trip id="random_trip_101" depart="101.00" from="E0128" to="E0056"/>
    <trip id="random_trip_102" depart="102.00" from="E0095" to="E0064"/>
    <trip id="random_trip_103" depart="103.00" from="E0085" to="E0017"/>
    <trip id="random_trip_104" depart="104.00" from="E0084" to="E0139"/>
    <trip id="random_trip_105" depart="105.00" from="E0067" to="E0124"/>
    <trip id="random_trip_106" depart="106.00" from="E0093" to="E0087"/>
    <trip id="random_trip_107" depart="107.00" from="E0136" to="E0139"/>
    <trip id="random_trip_108" depart="108.00" from="E0105" to="E0118"/>
    <trip id="random_trip_109" depart="109.00" from="E0054" to="E0074"/>
    <trip id="random_trip_110" depart="110.00" from="E0136" to="E0106"/>
    <trip id="random_trip_111" depart="111.00" from="E0104" to="E0122"/>
    <trip id="random_trip_112" depart="112.00" from="E0021" to="E0107"/>
    <trip id="random_trip_113" depart="113.00" from="E0096" to="E0129"/>
    <trip id="random_trip_114" depart="114.00" from="E0054" to="E0136"/>
    <trip id="random_trip_115" depart="115.00" from="E0037" to="E0059"/>
    <trip id="random_trip_116" depart="116.00" from="E0107" to="E0115"/>
    <trip id="random_trip_117" depart="117.00" from="E0065" to="E0049"/>
    <trip id="random_trip_118" depart="118.00" from="E0131" to="E0066"/>
    <trip id="random_trip_119" depart="119.00" from="E0107" to="E0109"/>
    <trip id="random_trip_120" depart="120.00" from="E0087" to="E0107"/>
    <trip id="random_trip_121" depart="121.00" from="E0103" to="E0134"/>
    <trip id="random_trip_122" depart="122.00" from="E0060" to="E0117"/>
    <trip id="random_trip_123" depart="123.00" from="E0065" to="E0085"/>
    <trip id="random_trip_124" depart="124.00" from="E0115" to="E0077"/>
    <trip id="random_trip_125" depart="125.00" from="E0079" to="E0122"/>
    <trip id="random_trip_126" depart="126.00" from="E0023" to="E0093"/>
    <trip id="random_trip_127" depart="127.00" from="E0139" to="E0139"/>
    <trip id="random_trip_128" depart="128.00" from="E0023" to="E0064"/>
    <trip id="random_trip_129" depart="129.00" from="E0067" to="E0134"/>
    <trip id="random_trip_130" depart="130.00" from="E0131" to="E0130"/>
    <trip id="random_trip_131" depart="131.00" from="E0082" to="E0054"/>
    <trip id="random_trip_132" depart="132.00" from="E0127" to="E0117"/>
    <trip id="random_trip_133" depart="133.00" from="E0108" to="E0139"/>
    <trip id="random_trip_134" depart="134.00" from="E0111" to="E0003"/>
    <trip id="random_trip_135" depart="135.00" from="E0126" to="E0077"/>
    <trip id="random_trip_136" depart="136.00" from="E0113" to="E0134"/>
    <trip id="random_trip_137" depart="137.00" from="E0049" to="E0043"/>
    <trip id="random_trip_138" depart="138.00" from="E0045" to="E0105"/>
    <trip id="random_trip_139" depart="139.00" from="E0071" to="E0108"/>
    <trip id="random_trip_140" depart="140.00" from="E0118" to="E0060"/>
    <trip id="random_trip_141" depart="141.00" from="E0110" to="E0067"/>
    <trip id="random_trip_142" depart="142.00" from="E0095" to="E0132"/>
    <trip id="random_trip_143" depart="143.00" from="E0128" to="E0037"/>
    <trip id="random_trip_144" depart="144.00" from="E0087" to="E0071"/>
    <trip id="random_trip_145" depart="145.00" from="E0003" to="E0123"/>
    <trip id="random_trip_146" depart="146.00" from="E0110" to="E0067"/>
    <trip id="random_trip_147" depart="147.00" from="E0121" to="E0104"/>
    <trip id="random_trip_148" depart="148.00" from="E0087" to="E0003"/>
    <trip id="random_trip_149" depart="149.00" from="E0037" to="E0131"/>
    <trip id="random_trip_150" depart="150.00" from="E0132" to="E0104"/>
    <trip id="random_trip_151" depart="151.00" from="E0127" to="E0107"/>
    <trip id="random_trip_152" depart="152.00" from="E0052" to="E0049"/>
    <trip id="random_trip_153" depart="153.00" from="E0077" to="E0132"/>
    <trip id="random_trip_154" depart="154.00" from="E0125" to="E0129"/>
    <trip id="random_trip_155" depart="155.00" from="E0132" to="E0064"/>
    <trip id="random_trip_156" depart="156.00" from="E0066" to="E0037"/>
    <trip id="random_trip_157" depart="157.00" from="E0124" to="E0131"/>
    <trip id="random_trip_158" depart="158.00" from="E0086" to="E0109"/>
    <trip id="random_trip_159" depart="159.00" from="E0054" to="E0134"/>
    <trip id="random_trip_160" depart="160.00" from="E0129" to="E0137"/>
    <trip id="random_trip_161" depart="161.00" from="E0126" to="E0131"/>
    <trip id="random_trip_162" depart="162.00" from="E0011" to="E0121"/>
    <trip id="random_trip_163" depart="163.00" from="E0080" to="E0134"/>
    <trip id="random_trip_164" depart="164.00" from="E0125" to="E0129"/>
    <trip id="random_trip_165" depart="165.00" from="E0126" to="E0067"/>
    <trip id="random_trip_166" depart="166.00" from="E0124" to="E0043"/>
    <trip id="random_trip_167" depart="167.00" from="E0130" to="E0129"/>
    <trip id="random_trip_168" depart="168.00" from="E0064" to="E0126"/>
    <trip id="random_trip_169" depart="169.00" from="E0093" to="E0077"/>
    <trip id="random_trip_170" depart="170.00" from="E0125" to="E0065"/>
    <trip id="random_trip_171" depart="171.00" from="E0011" to="E0059"/>
    <trip id="random_trip_172" depart="172.00" from="E0079" to="E0129"/>
    <trip id="random_trip_173" depart="173.00" from="E0136" to="E0071"/>
    <trip id="random_trip_174" depart="174.00" from="E0110" to="E0085"/>
    <trip id="random_trip_175" depart="175.00" from="E0137" to="E0103"/>
    <trip id="random_trip_176" depart="176.00" from="E0134" to="E0043"/>
    <trip id="random_trip_177" depart="177.00" from="E0137" to="E0056"/>
    <trip id="random_trip_178" depart="178.00" from="E0136" to="E0067"/>
    <trip id="random_trip_179" depart="179.00" from="E0045" to="E0092"/>
    <trip id="random_trip_180" depart="180.00" from="E0118" to="E0079"/>
    <trip id="random_trip_181" depart="181.00" from="E0108" to="E0100"/>
    <trip id="random_trip_182" depart="182.00" from="E0084" to="E0106"/>
    <trip id="random_trip_183" depart="183.00" from="E0067" to="E0117"/>
    <trip id="random_trip_184" depart="184.00" from="E0003" to="E0134"/>
    <trip id="random_trip_185" depart="185.00" from="E0104" to="E0118"/>
    <trip id="random_trip_186" depart="186.00" from="E0121" to="E0113"/>
    <trip id="random_trip_187" depart="187.00" from="E0082" to="E0021"/>
    <trip id="random_trip_188" depart="188.00" from="E0113" to="E0080"/>
    <trip id="random_trip_189" depart="189.00" from="E0079" to="E0128"/>
    <trip id="random_trip_190" depart="190.00" from="E0118" to="E0077"/>
    <trip id="random_trip_191" depart="191.00" from="E0077" to="E0086"/>
    <trip id="random_trip_192" depart="192.00" from="E0085" to="E0074"/>
    <trip id="random_trip_193" depart="193.00" from="E0049" to="E0087"/>
    <trip id="random_trip_194" depart="194.00" from="E0135" to="E0115"/>
    <trip id="random_trip_195" depart="195.00" from="E0132" to="E0109"/>
    <trip id="random_trip_196" depart="196.00" from="E0077" to="E0104"/>
    <trip id="random_trip_197" depart="197.00" from="E0003" to="E0074"/>
    <trip id="random_trip_198" depart="198.00" from="E0087" to="E0106"/>
    <trip id="random_trip_199" depart="199.00" from="E0111" to="E0094"/>
    <trip id="random_trip_200" depart="200.00" from="E0092" to="E0064"/>
    <trip id="random_trip_201" depart="201.00" from="E0094" to="E0132"/>
    <trip id="random_trip_202" depart="202.00" from="E0125" to="E0056"/>
    <trip id="random_trip_203" depart="203.00" from="E0037" to="E0100"/>
    <trip id="random_trip_204" depart="204.00" from="E0110" to="E0080"/>
    <trip id="random_trip_205" depart="205.00" from="E0126" to="E0122"/>
    <trip id="random_trip_206" depart="206.00" from="E0115" to="E0065"/>
    <trip id="random_trip_207" depart="207.00" from="E0060" to="E0011"/>
    <trip id="random_trip_208" depart="208.00" from="E0066" to="E0094"/>
    <trip id="random_trip_209" depart="209.00" from="E0128" to="E0021"/>
    <trip id="random_trip_210" depart="210.00" from="E0086" to="E0110"/>
    <trip id="random_trip_211" depart="211.00" from="E0060" to="E0116"/>
    <trip id="random_trip_212" depart="212.00" from="E0096" to="E0066"/>
    <trip id="random_trip_213" depart="213.00" from="E0111" to="E0003"/>
    <trip id="random_trip_214" depart="214.00" from="E0122" to="E0123"/>
    <trip id="random_trip_215" depart="215.00" from="E0045" to="E0087"/>
    <trip id="random_trip_216" depart="216.00" from="E0056" to="E0136"/>
    <trip id="random_trip_217" depart="217.00" from="E0100" to="E0017"/>
    <trip id="random_trip_218" depart="218.00" from="E0066" to="E0128"/>
    <trip id="random_trip_219" depart="219.00" from="E0093" to="E0125"/>
    <trip id="random_trip_220" depart="220.00" from="E0113" to="E0139"/>
    <trip id="random_trip_221" depart="221.00" from="E0107" to="E0135"/>
    <trip id="random_trip_222" depart="222.00" from="E0131" to="E0109"/>
    <trip id="random_trip_223" depart="223.00" from="E0118" to="E0096"/>
    <trip id="random_trip_224" depart="224.00" from="E0127" to="E0104"/>
    <trip id="random_trip_225" depart="225.00" from="E0132" to="E0121"/>
    <trip id="random_trip_226" depart="226.00" from="E0094" to="E0067"/>
    <trip id="random_trip_227" depart="227.00" from="E0066" to="E0110"/>
    <trip id="random_trip_228" depart="228.00" from="E0123" to="E0100"/>
    <trip id="random_trip_229" depart="229.00" from="E0109" to="E0071"/>
    <trip id="random_trip_230" depart="230.00" from="E0037" to="E0074"/>
    <trip id="random_trip_231" depart="231.00" from="E0071" to="E0079"/>
    <trip id="random_trip_232" depart="232.00" from="E0104" to="E0052"/>
    <trip id="random_trip_233" depart="233.00" from="E0065" to="E0116"/>
    <trip id="random_trip_234" depart="234.00" from="E0117" to="E0021"/>
    <trip id="random_trip_235" depart="235.00" from="E0086" to="E0104"/>
    <trip id="random_trip_236" depart="236.00" from="E0086" to="E0060"/>
    <trip id="random_trip_237" depart="237.00" from="E0087" to="E0132"/>
    <trip id="random_trip_238" depart="238.00" from="E0107" to="E0116"/>
    <trip id="random_trip_239" depart="239.00" from="E0129" to="E0123"/>
    <trip id="random_trip_240" depart="240.00" from="E0084" to="E0003"/>
    <trip id="random_trip_241" depart="241.00" from="E0081" to="E0122"/>
    <trip id="random_trip_242" depart="242.00" from="E0129" to="E0135"/>
    <trip id="random_trip_243" depart="243.00" from="E0087" to="E0122"/>
    <trip id="random_trip_244" depart="244.00" from="E0104" to="E0108"/>
    <trip id="random_trip_245" depart="245.00" from="E0064" to="E0064"/>
    <trip id="random_trip_246" depart="246.00" from="E0092" to="E0011"/>
    <trip id="random_trip_247" depart="247.00" from="E0080" to="E0115"/>
    <trip id="random_trip_248" depart="248.00" from="E0086" to="E0056"/>
    <trip id="random_trip_249" depart="249.00" from="E0094" to="E0049"/>
    <trip id="random_trip_250" depart="250.00" from="E0109" to="E0011"/>
    <trip id="random_trip_251" depart="251.00" from="E0085" to="E0105"/>
    <trip id="random_trip_252" depart="252.00" from="E0011" to="E0111"/>
    <trip id="random_trip_253" depart="253.00" from="E0052" to="E0093"/>
    <trip id="random_trip_254" depart="254.00" from="E0021" to="E0084"/>
    <trip id="random_trip_255" depart="255.00" from="E0064" to="E0079"/>
    <trip id="random_trip_256" depart="256.00" from="E0123" to="E0084"/>
    <trip id="random_trip_257" depart="257.00" from="E0122" to="E0127"/>
    <trip id="random_trip_258" depart="258.00" from="E0066" to="E0023"/>
    <trip id="random_trip_259" depart="259.00" from="E0011" to="E0104"/>
    <trip id="random_trip_260" depart="260.00" from="E0139" to="E0081"/>
    <trip id="random_trip_261" depart="261.00" from="E0111" to="E0124"/>
    <trip id="random_trip_262" depart="262.00" from="E0111" to="E0122"/>
    <trip id="random_trip_263" depart="263.00" from="E0135" to="E0060"/>
    <trip id="random_trip_264" depart="264.00" from="E0011" to="E0054"/>
    <trip id="random_trip_265" depart="265.00" from="E0049" to="E0113"/>
    <trip id="random_trip_266" depart="266.00" from="E0105" to="E0064"/>
    <trip id="random_trip_267" depart="267.00" from="E0116" to="E0123"/>
    <trip id="random_trip_268" depart="268.00" from="E0056" to="E0108"/>
    <trip id="random_trip_269" depart="269.00" from="E0122" to="E0043"/>
    <trip id="random_trip_270" depart="270.00" from="E0126" to="E0136"/>
    <trip id="random_trip_271" depart="271.00" from="E0045" to="E0011"/>
    <trip id="random_trip_272" depart="272.00" from="E0077" to="E0115"/>
    <trip id="random_trip_273" depart="273.00" from="E0136" to="E0085"/>
    <trip id="random_trip_274" depart="274.00" from="E0117" to="E0023"/>
    <trip id="random_trip_275" depart="275.00" from="E0116" to="E0110"/>
    <trip id="random_trip_276" depart="276.00" from="E0043" to="E0123"/>
    <trip id="random_trip_277" depart="277.00" from="E0128" to="E0108"/>
    <trip id="random_trip_278" depart="278.00" from="E0049" to="E0137"/>
    <trip id="random_trip_279" depart="279.00" from="E0124" to="E0081"/>
    <trip id="random_trip_280" depart="280.00" from="E0087" to="E0082"/>
    <trip id="random_trip_281" depart="281.00" from="E0096" to="E0080"/>
    <trip id="random_trip_282" depart="282.00" from="E0128" to="E0127"/>
    <trip id="random_trip_283" depart="283.00" from="E0045" to="E0136"/>
    <trip id="random_trip_284" depart="284.00" from="E0110" to="E0127"/>
    <trip id="random_trip_285" depart="285.00" from="E0117" to="E0092"/>
    <trip id="random_trip_286" depart="286.00" from="E0121" to="E0136"/>
    <trip id="random_trip_287" depart="287.00" from="E0071" to="E0126"/>
    <trip id="random_trip_288" depart="288.00" from="E0104" to="E0095"/>
    <trip id="random_trip_289" depart="289.00" from="E0092" to="E0118"/>
    <trip id="random_trip_290" depart="290.00" from="E0067" to="E0129"/>
    <trip id="random_trip_291" depart="291.00" from="E0127" to="E0023"/>
    <trip id="random_trip_292" depart="292.00" from="E0131" to="E0066"/>
    <trip id="random_trip_293" depart="293.00" from="E0094" to="E0108"/>
    <trip id="random_trip_294" depart="294.00" from="E0084" to="E0011"/>
    <trip id="random_trip_295" depart="295.00" from="E0129" to="E0059"/>
    <trip id="random_trip_296" depart="296.00" from="E0064" to="E0125"/>
    <trip id="random_trip_297" depart="297.00" from="E0080" to="E0130"/>
    <trip id="random_trip_298" depart="298.00" from="E0116" to="E0071"/>
    <trip id="random_trip_299" depart="299.00" from="E0003" to="E0135"/>
    <trip id="random_trip_300" depart="300.00" from="E0037" to="E0118"/>
    <trip id="random_trip_301" depart="301.00" from="E0095" to="E0122"/>
    <trip id="random_trip_302" depart="302.00" from="E0116" to="E0111"/>
    <trip id="random_trip_303" depart="303.00" from="E0095" to="E0125"/>
    <trip id="random_trip_304" depart="304.00" from="E0043" to="E0064"/>
    <trip id="random_trip_305" depart="305.00" from="E0116" to="E0077"/>
    <trip id="random_trip_306" depart="306.00" from="E0106" to="E0094"/>
    <trip id="random_trip_307" depart="307.00" from="E0103" to="E0087"/>
    <trip id="random_trip_308" depart="308.00" from="E0121" to="E0080"/>
    <trip id="random_trip_309" depart="309.00" from="E0117" to="E0071"/>
    <trip id="random_trip_310" depart="310.00" from="E0066" to="E0049"/>
    <trip id="random_trip_311" depart="311.00" from="E0059" to="E0049"/>
    <trip id="random_trip_312" depart="312.00" from="E0103" to="E0123"/>
    <trip id="random_trip_313" depart="313.00" from="E0059" to="E0064"/>
    <trip id="random_trip_314" depart="314.00" from="E0095" to="E0118"/>
    <trip id="random_trip_315" depart="315.00" from="E0137" to="E0103"/>
    <trip id="random_trip_316" depart="316.00" from="E0071" to="E0037"/>
    <trip id="random_trip_317" depart="317.00" from="E0060" to="E0065"/>
    <trip id="random_trip_318" depart="318.00" from="E0059" to="E0003"/>
    <trip id="random_trip_319" depart="319.00" from="E0103" to="E0071"/>
    <trip id="random_trip_320" depart="320.00" from="E0137" to="E0105"/>
    <trip id="random_trip_321" depart="321.00" from="E0116" to="E0049"/>
    <trip id="random_trip_322" depart="322.00" from="E0130" to="E0095"/>
    <trip id="random_trip_323" depart="323.00" from="E0130" to="E0106"/>
    <trip id="random_trip_324" depart="324.00" from="E0094" to="E0092"/>
    <trip id="random_trip_325" depart="325.00" from="E0059" to="E0017"/>
    <trip id="random_trip_326" depart="326.00" from="E0135" to="E0095"/>
    <trip id="random_trip_327" depart="327.00" from="E0127" to="E0085"/>
    <trip id="random_trip_328" depart="328.00" from="E0023" to="E0110"/>
    <trip id="random_trip_329" depart="329.00" from="E0021" to="E0052"/>
    <trip id="random_trip_330" depart="330.00" from="E0105" to="E0077"/>
    <trip id="random_trip_331" depart="331.00" from="E0139" to="E0043"/>
    <trip id="random_trip_332" depart="332.00" from="E0123" to="E0108"/>
    <trip id="random_trip_333" depart="333.00" from="E0124" to="E0065"/>
    <trip id="random_trip_334" depart="334.00" from="E0103" to="E0093"/>
    <trip id="random_trip_335" depart="335.00" from="E0092" to="E0129"/>
    <trip id="random_trip_336" depart="336.00" from="E0139" to="E0077"/>
    <trip id="random_trip_337" depart="337.00" from="E0109" to="E0108"/>
    <trip id="random_trip_338" depart="338.00" from="E0121" to="E0135"/>
    <trip id="random_trip_339" depart="339.00" from="E0060" to="E0064"/>
    <trip id="random_trip_340" depart="340.00" from="E0113" to="E0054"/>
    <trip id="random_trip_341" depart="341.00" from="E0056" to="E0023"/>
    <trip id="random_trip_342" depart="342.00" from="E0003" to="E0093"/>
    <trip id="random_trip_343" depart="343.00" from="E0107" to="E0074"/>
    <trip id="random_trip_344" depart="344.00" from="E0065" to="E0117"/>
    <trip id="random_trip_345" depart="345.00" from="E0117" to="E0093"/>
    <trip id="random_trip_346" depart="346.00" from="E0116" to="E0133"/>
    <trip id="random_trip_347" depart="347.00" from="E0124" to="E0109"/>
    <trip id="random_trip_348" depart="348.00" from="E0113" to="E0134"/>
    <trip id="random_trip_349" depart="349.00" from="E0087" to="E0104"/>
    <trip id="random_trip_350" depart="350.00" from="E0111" to="E0132"/>
    <trip id="random_trip_351" depart="351.00" from="E0127" to="E0021"/>
    <trip id="random_trip_352" depart="352.00" from="E0056" to="E0077"/>
    <trip id="random_trip_353" depart="353.00" from="E0122" to="E0106"/>
    <trip id="random_trip_354" depart="354.00" from="E0074" to="E0049"/>
    <trip id="random_trip_355" depart="355.00" from="E0116" to="E0116"/>
    <trip id="random_trip_356" depart="356.00" from="E0135" to="E0096"/>
    <trip id="random_trip_357" depart="357.00" from="E0096" to="E0023"/>
    <trip id="random_trip_358" depart="358.00" from="E0015" to="E0087"/>
    <trip id="random_trip_359" depart="359.00" from="E0079" to="E0066"/>
    <trip id="random_trip_360" depart="360.00" from="E0043" to="E0136"/>
    <trip id="random_trip_361" depart="361.00" from="E0128" to="E0106"/>
    <trip id="random_trip_362" depart="362.00" from="E0135" to="E0139"/>
    <trip id="random_trip_363" depart="363.00" from="E0115" to="E0071"/>
    <trip id="random_trip_364" depart="364.00" from="E0015" to="E0122"/>
    <trip id="random_trip_365" depart="365.00" from="E0094" to="E0111"/>
    <trip id="random_trip_366" depart="366.00" from="E0133" to="E0059"/>
    <trip id="random_trip_367" depart="367.00" from="E0107" to="E0110"/>
    <trip id="random_trip_368" depart="368.00" from="E0095" to="E0037"/>
    <trip id="random_trip_369" depart="369.00" from="E0081" to="E0080"/>
    <trip id="random_trip_370" depart="370.00" from="E0113" to="E0129"/>
    <trip id="random_trip_371" depart="371.00" from="E0080" to="E0116"/>
    <trip id="random_trip_372" depart="372.00" from="E0074" to="E0135"/>
    <trip id="random_trip_373" depart="373.00" from="E0126" to="E0104"/>
    <trip id="random_trip_374" depart="374.00" from="E0093" to="E0079"/>
    <trip id="random_trip_375" depart="375.00" from="E0079" to="E0137"/>
    <trip id="random_trip_376" depart="376.00" from="E0086" to="E0100"/>
    <trip id="random_trip_377" depart="377.00" from="E0139" to="E0113"/>
    <trip id="random_trip_378" depart="378.00" from="E0104" to="E0086"/>
    <trip id="random_trip_379" depart="379.00" from="E0059" to="E0082"/>
    <trip id="random_trip_380" depart="380.00" from="E0122" to="E0109"/>
    <trip id="random_trip_381" depart="381.00" from="E0122" to="E0060"/>
    <trip id="random_trip_382" depart="382.00" from="E0104" to="E0134"/>
    <trip id="random_trip_383" depart="383.00" from="E0092" to="E0116"/>
    <trip id="random_trip_384" depart="384.00" from="E0049" to="E0137"/>
    <trip id="random_trip_385" depart="385.00" from="E0108" to="E0066"/>
    <trip id="random_trip_386" depart="386.00" from="E0054" to="E0104"/>
    <trip id="random_trip_387" depart="387.00" from="E0105" to="E0037"/>
    <trip id="random_trip_388" depart="388.00" from="E0139" to="E0133"/>
    <trip id="random_trip_389" depart="389.00" from="E0093" to="E0043"/>
    <trip id="random_trip_390" depart="390.00" from="E0127" to="E0096"/>
    <trip id="random_trip_391" depart="391.00" from="E0118" to="E0100"/>
    <trip id="random_trip_392" depart="392.00" from="E0071" to="E0127"/>
    <trip id="random_trip_393" depart="393.00" from="E0137" to="E0066"/>
    <trip id="random_trip_394" depart="394.00" from="E0104" to="E0084"/>
    <trip id="random_trip_395" depart="395.00" from="E0133" to="E0100"/>
    <trip id="random_trip_396" depart="396.00" from="E0130" to="E0129"/>
    <trip id="random_trip_397" depart="397.00" from="E0071" to="E0124"/>
    <trip id="random_trip_398" depart="398.00" from="E0086" to="E0134"/>
    <trip id="random_trip_399" depart="399.00" from="E0100" to="E0126"/>
    <trip id="random_trip_400" depart="400.00" from="E0071" to="E0077"/>
    <trip id="random_trip_401" depart="401.00" from="E0107" to="E0139"/>
    <trip id="random_trip_402" depart="402.00" from="E0095" to="E0052"/>
    <trip id="random_trip_403" depart="403.00" from="E0104" to="E0081"/>
    <trip id="random_trip_404" depart="404.00" from="E0104" to="E0104"/>
    <trip id="random_trip_405" depart="405.00" from="E0093" to="E0079"/>