<configuration><input><net-file value="sim_16.net.xml" /><route-files value="sim_16.rou.xml" /></input><time><begin value="0" /></time></configuration>