<?xml version="1.0" encoding="UTF-8"?>

<!-- generated on 2023-06-26 02:05:22 by Eclipse SUMO netconvert Version 1.16.0
<configuration xmlns:xsi="http://www.w3.org/2001/XMLSchema-instance" xsi:noNamespaceSchemaLocation="http://sumo.dlr.de/xsd/netconvertConfiguration.xsd">

    <input>
        <node-files value="data/simulationConfigurations/tests/10\10.nod.xml"/>
        <edge-files value="data/simulationConfigurations/tests/10\10.edg.xml"/>
    </input>

    <output>
        <output-file value="data/simulationConfigurations/tests/10\10.net.xml"/>
    </output>

</configuration>
-->

<net version="1.16" junctionCornerDetail="5" limitTurnSpeed="5.50" xmlns:xsi="http://www.w3.org/2001/XMLSchema-instance" xsi:noNamespaceSchemaLocation="http://sumo.dlr.de/xsd/net_file.xsd">

    <location netOffset="-118.04,-232.33" convBoundary="0.00,0.00,814.06,805.56" origBoundary="118.04,232.33,932.09,1037.89" projParameter="!"/>

    <edge id=":V0001_0" function="internal">
        <lane id=":V0001_0_0" index="0" speed="5.53" length="11.27" shape="20.51,708.05 18.43,711.31 18.26,713.07 20.01,713.33 23.67,712.10"/>
        <lane id=":V0001_0_1" index="1" speed="6.82" length="18.07" shape="20.51,708.05 17.04,713.43 16.62,716.39 19.25,716.92 24.94,715.04"/>
    </edge>
    <edge id=":V0002_0" function="internal">
        <lane id=":V0002_0_0" index="0" speed="5.87" length="13.54" shape="785.17,373.36 790.28,373.67 792.45,373.05 791.70,371.50 788.02,369.02"/>
    </edge>
    <edge id=":V0002_1" function="internal">
        <lane id=":V0002_1_0" index="0" speed="8.24" length="20.91" shape="785.17,373.36 793.30,373.76 798.58,372.73 801.00,370.26 800.55,366.36"/>
    </edge>
    <edge id=":V0002_2" function="internal">
        <lane id=":V0002_2_0" index="0" speed="11.68" length="34.38" shape="785.17,373.36 797.23,375.17 806.67,377.80 812.46,381.61 813.61,386.94"/>
    </edge>
    <edge id=":V0002_3" function="internal">
        <lane id=":V0002_3_0" index="0" speed="4.09" length="6.36" shape="785.17,373.36 786.71,374.57 787.17,375.70 786.54,376.74 784.82,377.70"/>
    </edge>
    <edge id=":V0002_4" function="internal">
        <lane id=":V0002_4_0" index="0" speed="5.57" length="11.62" shape="785.13,389.03 788.70,387.17 789.75,385.72 788.29,384.69 784.32,384.08"/>
        <lane id=":V0002_4_1" index="1" speed="6.90" length="18.82" shape="785.13,389.03 791.09,385.95 792.98,383.57 790.81,381.88 784.57,380.89"/>
        <lane id=":V0002_4_2" index="2" speed="8.01" length="26.03" shape="785.13,389.03 793.48,384.73 796.21,381.41 793.33,379.06 784.82,377.70"/>
    </edge>
    <edge id=":V0002_7" function="internal">
        <lane id=":V0002_7_0" index="0" speed="9.96" length="33.73" shape="785.13,389.03 794.91,383.53 798.92,377.90 797.15,372.14 789.61,366.24"/>
    </edge>
    <edge id=":V0002_8" function="internal">
        <lane id=":V0002_8_0" index="0" speed="12.14" length="33.50" shape="785.13,389.03 795.25,383.69 801.68,377.93 804.44,371.75 803.51,365.15"/>
        <lane id=":V0002_8_1" index="1" speed="12.62" length="36.32" shape="785.13,389.03 796.54,383.14 803.89,377.00 807.21,370.60 806.48,363.95"/>
    </edge>
    <edge id=":V0002_10" function="internal">
        <lane id=":V0002_10_0" index="0" speed="9.86" length="32.97" shape="785.13,389.03 796.06,384.74 805.70,382.11 812.18,382.41 813.61,386.94"/>
    </edge>
    <edge id=":V0003_0" function="internal">
        <lane id=":V0003_0_0" index="0" speed="6.49" length="18.04" shape="165.22,17.03 171.08,20.06 173.47,20.49 172.39,18.32 167.84,13.55"/>
    </edge>
    <edge id=":V0003_1" function="internal">
        <lane id=":V0003_1_0" index="0" speed="2.86" length="1.54" shape="165.22,17.03 164.80,16.72 164.41,16.37 164.16,16.18 164.18,16.36"/>
        <lane id=":V0003_1_1" index="1" speed="5.89" length="12.38" shape="167.16,14.45 163.08,12.53 160.74,12.43 160.13,14.14 161.27,17.68"/>
    </edge>
    <edge id=":V0003_3" function="internal">
        <lane id=":V0003_3_0" index="0" speed="7.93" length="19.32" shape="169.10,11.87 162.09,8.39 157.08,7.06 154.05,7.90 153.01,10.90"/>
    </edge>
    <edge id=":V0004_0" function="internal">
        <lane id=":V0004_0_0" index="0" speed="7.20" length="11.90" shape="529.59,364.27 525.59,364.31 522.73,365.16 521.00,366.82 520.41,369.27"/>
    </edge>
    <edge id=":V0004_1" function="internal">
        <lane id=":V0004_1_0" index="0" speed="17.50" length="29.36" shape="517.29,340.29 519.54,347.95 520.43,356.31 520.52,363.91 520.41,369.27"/>
    </edge>
    <edge id=":V0004_2" function="internal">
        <lane id=":V0004_2_0" index="0" speed="17.37" length="25.55" shape="511.66,341.71 515.55,346.66 518.30,352.91 519.92,360.44 520.18,365.16"/>
    </edge>
    <edge id=":V0004_3" function="internal">
        <lane id=":V0004_3_0" index="0" speed="17.37" length="4.12" shape="520.18,365.16 520.41,369.27"/>
    </edge>
    <edge id=":V0005_0" function="internal">
        <lane id=":V0005_0_0" index="0" speed="5.46" length="10.18" shape="716.57,159.40 715.00,156.43 713.54,155.49 712.18,156.57 710.91,159.67"/>
        <lane id=":V0005_0_1" index="1" speed="6.58" length="15.62" shape="716.57,159.40 714.09,154.59 711.81,152.89 709.73,154.28 707.84,158.77"/>
    </edge>
    <edge id=":V0005_2" function="internal">
        <lane id=":V0005_2_0" index="0" speed="10.80" length="31.54" shape="716.57,159.40 711.85,150.88 706.27,146.40 699.80,145.94 692.46,149.52"/>
    </edge>
    <edge id=":V0005_3" function="internal">
        <lane id=":V0005_3_0" index="0" speed="13.21" length="34.97" shape="719.53,158.19 715.03,150.76 708.70,146.11 700.53,144.23 690.53,145.15"/>
        <lane id=":V0005_3_1" index="1" speed="14.01" length="39.49" shape="722.50,156.99 717.39,148.50 710.25,143.18 701.08,141.02 689.87,142.02"/>
        <lane id=":V0005_3_2" index="2" speed="14.39" length="41.72" shape="722.50,156.99 716.89,147.18 709.48,140.89 700.25,138.13 689.21,138.88"/>
    </edge>
    <edge id=":V0006_0" function="internal">
        <lane id=":V0006_0_0" index="0" speed="9.00" length="35.27" shape="530.68,769.62 525.42,776.40 517.62,776.82 510.09,772.02 505.67,763.11"/>
    </edge>
    <edge id=":V0006_1" function="internal">
        <lane id=":V0006_1_0" index="0" speed="6.22" length="16.78" shape="517.03,761.46 514.81,766.14 512.18,767.97 509.13,766.96 505.67,763.11"/>
    </edge>
    <edge id=":V0006_2" function="internal">
        <lane id=":V0006_2_0" index="0" speed="6.41" length="17.59" shape="501.70,764.29 504.58,770.06 506.21,771.79 506.57,769.47 505.67,763.11"/>
    </edge>
    <edge id=":V0007_0" function="internal">
        <lane id=":V0007_0_0" index="0" speed="10.57" length="40.65" shape="752.33,637.82 748.73,640.47 742.36,635.32 734.44,625.10 726.18,612.51"/>
        <lane id=":V0007_0_1" index="1" speed="10.19" length="37.67" shape="752.33,637.82 749.50,638.64 743.98,633.00 736.78,623.03 728.90,610.81"/>
    </edge>
    <edge id=":V0007_2" function="internal">
        <lane id=":V0007_2_0" index="0" speed="5.49" length="10.83" shape="719.93,618.16 723.36,619.45 725.10,619.22 725.13,617.47 723.47,614.20"/>
        <lane id=":V0007_2_1" index="1" speed="7.74" length="23.37" shape="718.55,621.04 725.96,623.83 729.70,623.33 729.77,619.56 726.18,612.51"/>
        <lane id=":V0007_2_2" index="2" speed="9.48" length="35.91" shape="717.17,623.93 728.55,628.20 734.30,627.44 734.41,621.64 728.90,610.81"/>
    </edge>
    <edge id=":V0008_0" function="internal">
        <lane id=":V0008_0_0" index="0" speed="6.93" length="17.98" shape="379.11,71.02 377.34,63.17 375.54,58.74 373.70,57.73 371.82,60.13"/>
    </edge>
    <edge id=":V0008_1" function="internal">
        <lane id=":V0008_1_0" index="0" speed="6.05" length="15.40" shape="379.11,71.02 380.10,66.37 382.06,64.17 385.00,64.43 388.91,67.13"/>
    </edge>
    <edge id=":V0008_2" function="internal">
        <lane id=":V0008_2_0" index="0" speed="12.07" length="70.68" shape="383.55,69.53 398.05,91.69 404.26,98.46 402.18,89.84 391.83,65.82"/>
        <lane id=":V0008_2_1" index="1" speed="6.75" length="20.56" shape="386.50,68.21 390.72,74.65 392.52,76.62 391.92,74.11 388.91,67.13"/>
    </edge>
    <edge id=":V0008_4" function="internal">
        <lane id=":V0008_4_0" index="0" speed="9.41" length="28.90" shape="389.45,66.89 382.93,57.99 377.33,53.68 372.66,53.95 368.92,58.80"/>
    </edge>
    <edge id=":V0008_5" function="internal">
        <lane id=":V0008_5_0" index="0" speed="12.08" length="37.34" shape="369.31,39.28 374.52,39.13 380.06,44.34 385.86,53.65 391.83,65.82"/>
        <lane id=":V0008_5_1" index="1" speed="11.23" length="32.13" shape="371.04,41.97 374.56,42.59 378.84,47.71 383.69,56.25 388.91,67.13"/>
    </edge>
    <edge id=":V0008_7" function="internal">
        <lane id=":V0008_7_0" index="0" speed="7.40" length="21.20" shape="371.04,41.97 374.07,41.59 373.95,45.57 371.84,51.95 368.92,58.80"/>
    </edge>
    <edge id=":V0009_0" function="internal">
        <lane id=":V0009_0_0" index="0" speed="24.00" length="20.52" shape="161.99,534.93 156.22,538.42 151.22,540.70 147.17,542.64 144.27,545.09"/>
    </edge>
    <edge id=":V0009_1" function="internal">
        <lane id=":V0009_1_0" index="0" speed="17.50" length="24.37" shape="158.01,525.04 154.52,531.44 150.71,536.98 147.10,541.55 144.27,545.09"/>
    </edge>
    <edge id=":V0009_2" function="internal">
        <lane id=":V0009_2_0" index="0" speed="18.68" length="23.57" shape="150.42,522.65 149.84,529.81 148.44,536.13 146.49,541.31 144.27,545.09"/>
    </edge>
    <edge id=":V0010_0" function="internal">
        <lane id=":V0010_0_0" index="0" speed="7.98" length="27.57" shape="13.82,284.62 23.41,282.06 26.54,279.80 23.22,277.83 13.44,276.15"/>
        <lane id=":V0010_0_1" index="1" speed="6.41" length="17.02" shape="13.82,284.62 19.74,283.04 21.67,281.64 19.62,280.43 13.58,279.39"/>
        <lane id=":V0010_0_2" index="2" speed="4.28" length="6.47" shape="13.82,284.62 16.07,284.02 16.81,283.49 16.03,283.02 13.73,282.63"/>
    </edge>
    <edge id=":V0010_3" function="internal">
        <lane id=":V0010_3_0" index="0" speed="3.95" length="4.52" shape="13.82,284.62 12.21,285.09 11.49,285.64 11.67,286.26 12.75,286.95"/>
    </edge>
    <edge id=":V0010_4" function="internal">
        <lane id=":V0010_4_0" index="0" speed="6.71" length="18.56" shape="13.67,281.38 7.58,281.86 1.98,281.05 -1.00,279.18 0.77,276.42"/>
        <lane id=":V0010_4_1" index="1" speed="6.13" length="15.16" shape="13.67,281.38 8.56,282.06 3.76,282.02 1.13,281.10 2.50,279.12"/>
    </edge>
    <edge id=":V0011_0" function="internal">
        <lane id=":V0011_0_0" index="0" speed="7.39" length="11.77" shape="402.15,543.68 404.05,547.06 406.14,549.16 408.42,549.98 410.88,549.53"/>
    </edge>
    <edge id=":V0011_1" function="internal">
        <lane id=":V0011_1_0" index="0" speed="21.50" length="14.37" shape="402.15,543.68 408.06,556.78"/>
        <lane id=":V0011_1_1" index="1" speed="21.50" length="14.37" shape="399.23,545.00 405.14,558.10"/>
    </edge>
    <edge id=":V0011_3" function="internal">
        <lane id=":V0011_3_0" index="0" speed="11.50" length="14.81" shape="396.41,552.25 400.88,550.88 404.46,550.54 407.63,550.38 410.88,549.53"/>
    </edge>
    <edge id=":V0011_4" function="internal">
        <lane id=":V0011_4_0" index="0" speed="6.57" length="9.10" shape="397.67,555.19 400.07,554.54 402.12,554.81 403.81,556.00 405.14,558.10"/>
    </edge>
    <edge id=":V0012_0" function="internal">
        <lane id=":V0012_0_0" index="0" speed="11.90" length="15.20" shape="390.83,152.92 389.67,147.56 388.36,143.46 386.92,140.62 385.33,139.05"/>
        <lane id=":V0012_0_1" index="1" speed="12.90" length="17.95" shape="393.98,152.34 392.62,146.30 390.98,141.60 389.09,138.26 386.92,136.27"/>
    </edge>
    <edge id=":V0012_2" function="internal">
        <lane id=":V0012_2_0" index="0" speed="15.00" length="18.97" shape="393.98,152.34 390.57,133.68"/>
    </edge>
    <edge id=":V0012_3" function="internal">
        <lane id=":V0012_3_0" index="0" speed="17.00" length="16.41" shape="397.63,149.76 393.72,146.95 391.48,144.40 389.24,141.86 385.33,139.05"/>
        <lane id=":V0012_3_1" index="1" speed="17.00" length="16.41" shape="399.21,146.98 395.30,144.17 393.07,141.62 390.83,139.08 386.92,136.27"/>
    </edge>
    <edge id=":V0012_5" function="internal">
        <lane id=":V0012_5_0" index="0" speed="11.85" length="15.07" shape="400.80,144.20 396.68,141.55 393.60,138.92 391.56,136.30 390.57,133.68"/>
    </edge>
    <edge id=":V0013_0" function="internal">
        <lane id=":V0013_0_0" index="0" speed="5.60" length="9.33" shape="387.51,209.06 384.82,210.00 383.62,211.37 383.91,213.16 385.69,215.39"/>
        <lane id=":V0013_0_1" index="1" speed="7.38" length="17.34" shape="386.85,205.93 381.85,207.68 379.62,210.22 380.16,213.55 383.46,217.69"/>
    </edge>
    <edge id=":V0013_2" function="internal">
        <lane id=":V0013_2_0" index="0" speed="10.50" length="26.07" shape="386.19,202.80 360.68,208.18"/>
    </edge>
    <edge id=":V0013_3" function="internal">
        <lane id=":V0013_3_0" index="0" speed="11.00" length="26.23" shape="364.73,199.56 369.71,203.68 374.36,206.66 379.44,210.04 385.69,215.39"/>
        <lane id=":V0013_3_1" index="1" speed="11.00" length="26.23" shape="362.50,201.86 367.48,205.98 372.14,208.96 377.22,212.34 383.46,217.69"/>
        <lane id=":V0013_3_2" index="2" speed="11.00" length="26.23" shape="362.50,201.86 381.24,219.99"/>
    </edge>
    <edge id=":V0013_6" function="internal">
        <lane id=":V0013_6_0" index="0" speed="5.60" length="9.33" shape="362.50,201.86 364.28,204.08 364.56,205.88 363.37,207.24 360.68,208.18"/>
    </edge>
    <edge id=":V0014_0" function="internal">
        <lane id=":V0014_0_0" index="0" speed="6.18" length="11.61" shape="151.16,174.83 151.57,178.34 152.91,180.17 155.18,180.33 158.37,178.82"/>
    </edge>
    <edge id=":V0014_1" function="internal">
        <lane id=":V0014_1_0" index="0" speed="25.00" length="15.86" shape="151.16,174.83 151.62,178.27 152.68,181.55 153.74,185.41 154.18,190.53"/>
        <lane id=":V0014_1_1" index="1" speed="25.00" length="15.86" shape="151.16,174.83 150.98,190.49"/>
    </edge>
    <edge id=":V0014_3" function="internal">
        <lane id=":V0014_3_0" index="0" speed="15.00" length="16.06" shape="143.46,184.60 148.04,182.25 151.86,181.10 155.21,180.25 158.37,178.82"/>
    </edge>
    <edge id=":V0014_4" function="internal">
        <lane id=":V0014_4_0" index="0" speed="5.61" length="9.31" shape="145.20,187.29 147.76,186.08 149.57,186.21 150.65,187.68 150.98,190.49"/>
    </edge>
    <edge id=":V0015_0" function="internal">
        <lane id=":V0015_0_0" index="0" speed="8.22" length="12.80" shape="503.76,289.16 500.68,291.82 498.82,294.49 498.19,297.15 498.79,299.82"/>
        <lane id=":V0015_0_1" index="1" speed="9.46" length="17.24" shape="501.90,286.56 497.94,290.04 495.62,293.64 494.93,297.34 495.88,301.15"/>
    </edge>
    <edge id=":V0015_2" function="internal">
        <lane id=":V0015_2_0" index="0" speed="17.00" length="17.81" shape="501.90,286.56 497.91,290.04 495.68,293.00 493.45,295.96 489.46,299.45"/>
        <lane id=":V0015_2_1" index="1" speed="17.00" length="17.81" shape="501.90,286.56 487.59,296.85"/>
    </edge>
    <edge id=":V0015_4" function="internal">
        <lane id=":V0015_4_0" index="0" speed="21.50" length="15.44" shape="495.47,284.85 496.89,289.15 497.13,292.34 497.38,295.52 498.79,299.82"/>
        <lane id=":V0015_4_1" index="1" speed="21.50" length="15.44" shape="492.56,286.18 493.98,290.48 494.22,293.67 494.47,296.85 495.88,301.15"/>
    </edge>
    <edge id=":V0015_6" function="internal">
        <lane id=":V0015_6_0" index="0" speed="7.49" length="10.49" shape="489.65,287.51 490.53,290.31 490.48,292.80 489.50,294.98 487.59,296.85"/>
    </edge>
    <edge id=":V0016_0" function="internal">
        <lane id=":V0016_0_0" index="0" speed="7.59" length="10.62" shape="654.30,373.97 651.33,374.10 648.97,375.00 647.21,376.67 646.07,379.11"/>
    </edge>
    <edge id=":V0016_1" function="internal">
        <lane id=":V0016_1_0" index="0" speed="20.00" length="15.06" shape="654.30,373.97 639.28,372.80"/>
        <lane id=":V0016_1_1" index="1" speed="20.00" length="15.06" shape="654.55,370.78 639.53,369.61"/>
        <lane id=":V0016_1_2" index="2" speed="20.00" length="15.06" shape="654.80,367.58 639.78,366.42"/>
    </edge>
    <edge id=":V0016_4" function="internal">
        <lane id=":V0016_4_0" index="0" speed="11.00" length="16.64" shape="650.79,363.15 646.07,379.11"/>
        <lane id=":V0016_4_1" index="1" speed="11.00" length="16.64" shape="647.72,362.24 643.00,378.20"/>
    </edge>
    <edge id=":V0016_6" function="internal">
        <lane id=":V0016_6_0" index="0" speed="8.03" length="12.01" shape="647.72,362.24 646.34,365.64 644.52,367.99 642.25,369.32 639.53,369.61"/>
        <lane id=":V0016_6_1" index="1" speed="7.30" length="9.79" shape="647.72,362.24 646.71,364.26 645.04,365.63 642.73,366.35 639.78,366.42"/>
    </edge>
    <edge id=":V0017_0" function="internal">
        <lane id=":V0017_0_0" index="0" speed="8.05" length="14.19" shape="222.34,377.50 221.23,381.22 221.57,384.42 223.36,387.09 226.59,389.25"/>
    </edge>
    <edge id=":V0017_1" function="internal">
        <lane id=":V0017_1_0" index="0" speed="10.00" length="14.59" shape="222.34,377.50 221.41,380.73 221.16,383.89 220.73,387.47 219.24,391.90"/>
        <lane id=":V0017_1_1" index="1" speed="10.00" length="14.59" shape="222.34,377.50 216.33,390.56"/>
    </edge>
    <edge id=":V0017_3" function="internal">
        <lane id=":V0017_3_0" index="0" speed="13.50" length="14.81" shape="215.00,380.15 218.98,382.61 221.59,385.08 223.81,387.36 226.59,389.25"/>
    </edge>
    <edge id=":V0017_4" function="internal">
        <lane id=":V0017_4_0" index="0" speed="6.56" length="9.09" shape="213.62,383.04 215.68,384.42 216.83,386.13 217.04,388.18 216.33,390.56"/>
    </edge>
    <edge id=":V0018_0" function="internal">
        <lane id=":V0018_0_0" index="0" speed="17.00" length="19.73" shape="562.67,356.53 552.22,339.79"/>
        <lane id=":V0018_0_1" index="1" speed="17.00" length="19.73" shape="565.38,354.84 554.94,338.10"/>
        <lane id=":V0018_0_2" index="2" speed="17.00" length="19.73" shape="568.10,353.14 557.65,336.41"/>
    </edge>
    <edge id=":V0018_3" function="internal">
        <lane id=":V0018_3_0" index="0" speed="6.45" length="13.41" shape="568.10,353.14 566.19,349.18 566.24,346.52 568.23,345.15 572.17,345.08"/>
        <lane id=":V0018_3_1" index="1" speed="5.44" length="9.10" shape="568.10,353.14 566.98,350.69 567.23,349.05 568.83,348.25 571.80,348.26"/>
    </edge>
    <edge id=":V0018_5" function="internal">
        <lane id=":V0018_5_0" index="0" speed="5.62" length="9.80" shape="549.09,345.59 552.02,345.55 553.52,344.57 553.58,342.65 552.22,339.79"/>
    </edge>
    <edge id=":V0018_6" function="internal">
        <lane id=":V0018_6_0" index="0" speed="9.50" length="23.30" shape="549.09,345.59 553.20,345.07 558.26,343.45 564.60,341.98 572.54,341.91"/>
        <lane id=":V0018_6_1" index="1" speed="9.50" length="23.30" shape="549.09,345.59 553.18,345.57 558.20,345.05 564.43,344.68 572.17,345.08"/>
        <lane id=":V0018_6_2" index="2" speed="9.50" length="23.30" shape="549.09,345.59 571.80,348.26"/>
    </edge>
    <edge id=":V0019_0" function="internal">
        <lane id=":V0019_0_0" index="0" speed="6.35" length="11.24" shape="519.37,489.61 519.88,492.20 521.45,493.54 524.09,493.61 527.80,492.42"/>
    </edge>
    <edge id=":V0019_1" function="internal">
        <lane id=":V0019_1_0" index="0" speed="21.50" length="20.39" shape="519.37,489.61 520.34,493.36 522.51,497.54 524.66,502.73 525.60,509.55"/>
        <lane id=":V0019_1_1" index="1" speed="21.50" length="20.39" shape="519.37,489.61 519.84,493.41 520.90,497.66 521.96,502.87 522.40,509.52"/>
        <lane id=":V0019_1_2" index="2" speed="21.50" length="20.39" shape="519.37,489.61 519.20,509.50"/>
    </edge>
    <edge id=":V0019_4" function="internal">
        <lane id=":V0019_4_0" index="0" speed="21.50" length="18.65" shape="513.33,505.59 516.51,503.68 519.68,501.12 523.61,498.24 529.06,495.36"/>
        <lane id=":V0019_4_1" index="1" speed="21.50" length="18.65" shape="513.33,505.59 530.32,498.30"/>
    </edge>
    <edge id=":V0019_6" function="internal">
        <lane id=":V0019_6_0" index="0" speed="6.70" length="12.68" shape="513.33,505.59 517.32,504.36 520.17,504.61 521.86,506.33 522.40,509.52"/>
        <lane id=":V0019_6_1" index="1" speed="5.80" length="9.15" shape="513.33,505.59 515.92,504.88 517.76,505.29 518.86,506.83 519.20,509.50"/>
    </edge>
    <edge id=":V0020_0" function="internal">
        <lane id=":V0020_0_0" index="0" speed="6.09" length="9.06" shape="270.71,230.43 268.30,231.31 266.93,232.72 266.61,234.66 267.32,237.12"/>
        <lane id=":V0020_0_1" index="1" speed="7.67" length="15.08" shape="270.05,227.30 266.04,228.77 263.76,231.11 263.22,234.34 264.40,238.44"/>
    </edge>
    <edge id=":V0020_2" function="internal">
        <lane id=":V0020_2_0" index="0" speed="12.50" length="19.23" shape="270.05,227.30 251.24,231.27"/>
    </edge>
    <edge id=":V0020_3" function="internal">
        <lane id=":V0020_3_0" index="0" speed="18.50" length="16.66" shape="260.47,221.94 267.32,237.12"/>
        <lane id=":V0020_3_1" index="1" speed="18.50" length="16.66" shape="257.55,223.26 264.40,238.44"/>
        <lane id=":V0020_3_2" index="2" speed="18.50" length="16.66" shape="254.63,224.57 261.48,239.76"/>
    </edge>
    <edge id=":V0020_6" function="internal">
        <lane id=":V0020_6_0" index="0" speed="6.09" length="9.06" shape="254.63,224.57 255.34,227.04 255.01,228.98 253.64,230.39 251.24,231.27"/>
    </edge>
    <edge id=":V0021_0" function="internal">
        <lane id=":V0021_0_0" index="0" speed="7.50" length="22.44" shape="481.96,197.92 475.64,193.69 470.71,189.82 466.66,187.17 462.98,186.60"/>
    </edge>
    <edge id=":V0021_1" function="internal">
        <lane id=":V0021_1_0" index="0" speed="14.50" length="18.48" shape="481.96,197.92 465.92,188.76"/>
        <lane id=":V0021_1_1" index="1" speed="14.50" length="18.48" shape="483.55,195.14 467.50,185.98"/>
        <lane id=":V0021_1_2" index="2" speed="14.50" length="18.48" shape="485.14,192.36 469.09,183.20"/>
    </edge>
    <edge id=":V0021_4" function="internal">
        <lane id=":V0021_4_0" index="0" speed="11.00" length="23.02" shape="485.77,188.34 478.18,188.92 472.02,187.97 467.03,186.77 462.98,186.60"/>
    </edge>
    <edge id=":V0021_5" function="internal">
        <lane id=":V0021_5_0" index="0" speed="14.90" length="18.39" shape="485.11,185.21 479.79,186.71 475.94,187.91 472.27,187.96 467.50,185.98"/>
        <lane id=":V0021_5_1" index="1" speed="13.96" length="16.09" shape="484.45,182.08 479.81,183.46 476.45,184.66 473.25,184.86 469.09,183.20"/>
    </edge>
    <edge id=":V0022_0" function="internal">
        <lane id=":V0022_0_0" index="0" speed="18.50" length="20.44" shape="305.04,93.19 299.64,90.68 295.55,89.61 291.42,88.52 285.90,85.95"/>
        <lane id=":V0022_0_1" index="1" speed="18.50" length="20.44" shape="306.63,90.42 301.22,87.90 297.13,86.84 293.00,85.75 287.49,83.17"/>
        <lane id=":V0022_0_2" index="2" speed="18.50" length="20.44" shape="306.63,90.42 289.07,80.39"/>
    </edge>
    <edge id=":V0022_3" function="internal">
        <lane id=":V0022_3_0" index="0" speed="5.72" length="9.20" shape="306.63,90.42 304.45,88.75 303.70,87.05 304.36,85.31 306.45,83.53"/>
    </edge>
    <edge id=":V0022_4" function="internal">
        <lane id=":V0022_4_0" index="0" speed="5.72" length="9.20" shape="286.08,92.83 288.16,91.05 288.83,89.31 288.07,87.61 285.90,85.95"/>
        <lane id=":V0022_4_1" index="1" speed="7.43" length="16.51" shape="287.81,95.52 291.55,92.33 292.74,89.21 291.39,86.16 287.49,83.17"/>
    </edge>
    <edge id=":V0022_6" function="internal">
        <lane id=":V0022_6_0" index="0" speed="21.00" length="22.30" shape="287.81,95.52 292.82,91.71 296.26,88.18 299.71,84.66 304.71,80.84"/>
        <lane id=":V0022_6_1" index="1" speed="21.00" length="22.30" shape="287.81,95.52 306.45,83.53"/>
    </edge>
    <edge id=":V0023_0" function="internal">
        <lane id=":V0023_0_0" index="0" speed="19.50" length="28.97" shape="413.36,258.34 408.15,229.84"/>
    </edge>
    <edge id=":V0023_1" function="internal">
        <lane id=":V0023_1_0" index="0" speed="5.47" length="4.16" shape="413.36,258.34 413.06,254.86 413.33,254.25"/>
    </edge>
    <edge id=":V0023_5" function="internal">
        <lane id=":V0023_5_0" index="0" speed="5.47" length="6.30" shape="413.33,254.25 413.76,253.27 415.48,253.57 418.20,255.75"/>
    </edge>
    <edge id=":V0023_2" function="internal">
        <lane id=":V0023_2_0" index="0" speed="5.47" length="10.46" shape="403.31,232.43 406.03,234.62 407.75,234.91 408.45,233.32 408.15,229.84"/>
    </edge>
    <edge id=":V0023_3" function="internal">
        <lane id=":V0023_3_0" index="0" speed="12.50" length="26.91" shape="401.08,234.73 420.43,253.45"/>
        <lane id=":V0023_3_1" index="1" speed="12.50" length="26.91" shape="398.86,237.03 418.20,255.75"/>
    </edge>
    <edge id=":V0024_0" function="internal">
        <lane id=":V0024_0_0" index="0" speed="8.84" length="13.02" shape="324.95,154.40 324.45,156.84 325.08,159.54 326.84,162.49 329.73,165.70"/>
    </edge>
    <edge id=":V0024_1" function="internal">
        <lane id=":V0024_1_0" index="0" speed="16.50" length="14.91" shape="324.95,154.40 324.00,157.65 323.73,160.88 323.25,164.55 321.71,169.09"/>
        <lane id=":V0024_1_1" index="1" speed="16.50" length="14.91" shape="324.95,154.40 318.81,167.75"/>
    </edge>
    <edge id=":V0024_3" function="internal">
        <lane id=":V0024_3_0" index="0" speed="15.00" length="14.70" shape="319.16,155.48 329.73,165.70"/>
        <lane id=":V0024_3_1" index="1" speed="15.00" length="14.70" shape="316.94,157.78 327.50,168.00"/>
    </edge>
    <edge id=":V0024_5" function="internal">
        <lane id=":V0024_5_0" index="0" speed="8.13" length="10.89" shape="316.94,157.78 318.73,160.03 319.64,162.44 319.66,165.01 318.81,167.75"/>
    </edge>
    <edge id=":V0025_0" function="internal">
        <lane id=":V0025_0_0" index="0" speed="7.06" length="7.23" shape="155.61,347.22 155.79,349.28 156.37,350.98 157.37,352.31 158.78,353.26"/>
        <lane id=":V0025_0_1" index="1" speed="8.54" length="10.88" shape="152.41,347.18 152.69,350.19 153.62,352.69 155.19,354.68 157.40,356.15"/>
    </edge>
    <edge id=":V0025_2" function="internal">
        <lane id=":V0025_2_0" index="0" speed="17.50" length="11.89" shape="149.21,347.14 149.67,350.65 150.74,352.96 151.82,355.27 152.28,358.78"/>
        <lane id=":V0025_2_1" index="1" speed="17.50" length="11.89" shape="149.21,347.14 149.08,358.75"/>
    </edge>
    <edge id=":V0025_4" function="internal">
        <lane id=":V0025_4_0" index="0" speed="17.50" length="14.42" shape="144.59,350.02 147.78,350.99 150.91,351.27 154.43,351.73 158.78,353.26"/>
        <lane id=":V0025_4_1" index="1" speed="17.50" length="14.42" shape="144.59,350.02 157.40,356.15"/>
    </edge>
    <edge id=":V0025_6" function="internal">
        <lane id=":V0025_6_0" index="0" speed="8.35" length="10.39" shape="144.59,350.02 146.58,351.38 147.99,353.29 148.82,355.75 149.08,358.75"/>
    </edge>
    <edge id=":V0026_0" function="internal">
        <lane id=":V0026_0_0" index="0" speed="7.00" length="11.16" shape="519.78,287.82 517.58,284.95 515.34,283.38 513.06,283.11 510.76,284.12"/>
    </edge>
    <edge id=":V0026_1" function="internal">
        <lane id=":V0026_1_0" index="0" speed="23.00" length="17.97" shape="522.50,286.13 519.84,280.92 518.41,276.55 517.37,272.81 515.88,269.48"/>
    </edge>
    <edge id=":V0026_2" function="internal">
        <lane id=":V0026_2_0" index="0" speed="15.00" length="18.41" shape="527.28,276.19 522.61,278.93 519.02,280.16 515.43,281.38 510.76,284.12"/>
        <lane id=":V0026_2_1" index="1" speed="15.00" length="18.41" shape="525.41,273.59 520.74,276.34 517.15,277.56 513.57,278.78 508.89,281.53"/>
    </edge>
    <edge id=":V0026_4" function="internal">
        <lane id=":V0026_4_0" index="0" speed="6.37" length="9.04" shape="523.54,270.99 521.32,272.15 519.31,272.28 517.50,271.39 515.88,269.48"/>
    </edge>
    <edge id=":V0027_0" function="internal">
        <lane id=":V0027_0_0" index="0" speed="5.69" length="9.22" shape="318.18,426.55 316.18,428.44 315.61,430.21 316.48,431.84 318.79,433.35"/>
    </edge>
    <edge id=":V0027_1" function="internal">
        <lane id=":V0027_1_0" index="0" speed="23.00" length="16.91" shape="316.32,423.95 302.59,433.82"/>
        <lane id=":V0027_1_1" index="1" speed="23.00" length="16.91" shape="314.45,421.35 300.72,431.22"/>
    </edge>
    <edge id=":V0027_3" function="internal">
        <lane id=":V0027_3_0" index="0" speed="8.00" length="20.70" shape="300.12,424.42 318.79,433.35"/>
    </edge>
    <edge id=":V0027_4" function="internal">
        <lane id=":V0027_4_0" index="0" speed="5.69" length="9.22" shape="300.12,424.42 302.42,425.93 303.29,427.57 302.72,429.33 300.72,431.22"/>
    </edge>
    <edge id=":V0028_0" function="internal">
        <lane id=":V0028_0_0" index="0" speed="5.22" length="9.38" shape="439.06,169.73 437.39,169.20 436.80,170.12 437.27,172.49 438.82,176.31"/>
    </edge>
    <edge id=":V0028_1" function="internal">
        <lane id=":V0028_1_0" index="0" speed="22.00" length="18.72" shape="439.06,169.73 434.01,167.42 430.24,166.54 426.47,165.65 421.42,163.34"/>
        <lane id=":V0028_1_1" index="1" speed="22.00" length="18.72" shape="440.64,166.95 435.60,164.65 431.83,163.76 428.05,162.87 423.01,160.57"/>
        <lane id=":V0028_1_2" index="2" speed="22.00" length="18.72" shape="440.64,166.95 424.59,157.79"/>
    </edge>
    <edge id=":V0028_4" function="internal">