<configuration><input><net-file value="10.net.xml" /><route-files value="10.rou.xml" /></input><time><begin value="0" /></time></configuration>