<configuration><input><net-file value="sim_5.net.xml" /><route-files value="sim_5.rou.xml" /></input><time><begin value="0" /></time></configuration>