<?xml version="1.0" encoding="UTF-8"?>

<!-- generated on 2023-06-25 11:47:55 by Eclipse SUMO netconvert Version 1.16.0
<configuration xmlns:xsi="http://www.w3.org/2001/XMLSchema-instance" xsi:noNamespaceSchemaLocation="http://sumo.dlr.de/xsd/netconvertConfiguration.xsd">

    <input>
        <node-files value="noOptim.nod.xml"/>
        <edge-files value="noOptim.edg.xml"/>
    </input>

    <output>
        <output-file value="noOptim.net.xml"/>
    </output>

</configuration>
-->

<net version="1.16" junctionCornerDetail="5" limitTurnSpeed="5.50" xmlns:xsi="http://www.w3.org/2001/XMLSchema-instance" xsi:noNamespaceSchemaLocation="http://sumo.dlr.de/xsd/net_file.xsd">

    <location netOffset="-143.00,-82.00" convBoundary="0.00,0.00,568.00,635.40" origBoundary="143.00,82.00,711.00,717.40" projParameter="!"/>

    <edge id=":0_0" function="internal">
        <lane id=":0_0_0" index="0" speed="13.90" length="28.88" shape="69.36,446.93 64.12,441.76 59.79,435.89 56.03,429.54 52.49,422.97"/>
        <lane id=":0_0_1" index="1" speed="13.90" length="28.88" shape="71.38,444.45 66.27,439.43 62.21,433.89 58.72,427.88 55.31,421.45"/>
    </edge>
    <edge id=":0_2" function="internal">
        <lane id=":0_2_0" index="0" speed="12.95" length="4.24" shape="71.38,444.45 68.88,441.03"/>
    </edge>
    <edge id=":0_3" function="internal">
        <lane id=":0_3_0" index="0" speed="3.65" length="1.44" shape="71.38,444.45 70.96,443.07"/>
    </edge>
    <edge id=":0_11" function="internal">
        <lane id=":0_11_0" index="0" speed="12.95" length="22.79" shape="68.88,441.03 68.59,440.64 67.42,435.07 67.89,427.76 69.98,418.71"/>
    </edge>
    <edge id=":0_12" function="internal">
        <lane id=":0_12_0" index="0" speed="3.65" length="3.23" shape="70.96,443.07 71.15,442.20 71.97,441.83 73.40,441.97"/>
    </edge>
    <edge id=":0_4" function="internal">
        <lane id=":0_4_0" index="0" speed="11.10" length="19.66" shape="76.12,420.50 74.34,427.61 73.64,433.14 74.00,437.10 75.43,439.49"/>
    </edge>
    <edge id=":0_5" function="internal">
        <lane id=":0_5_0" index="0" speed="8.13" length="23.58" shape="73.05,419.60 69.76,425.13 64.89,427.37 59.66,426.19 55.31,421.45"/>
    </edge>
    <edge id=":0_6" function="internal">
        <lane id=":0_6_0" index="0" speed="3.65" length="4.67" shape="73.05,419.60 71.94,420.53 71.06,420.69 70.41,420.08 69.98,418.71"/>
    </edge>
    <edge id=":0_7" function="internal">
        <lane id=":0_7_0" index="0" speed="5.47" length="9.76" shape="60.95,418.43 62.72,421.00 64.31,421.76 65.70,420.69 66.91,417.81"/>
    </edge>
    <edge id=":0_8" function="internal">
        <lane id=":0_8_0" index="0" speed="13.90" length="26.40" shape="60.95,418.43 64.11,424.55 67.05,429.89 70.56,434.77 75.43,439.49"/>
        <lane id=":0_8_1" index="1" speed="13.90" length="26.40" shape="58.13,419.94 61.42,426.21 64.63,431.89 68.41,437.10 73.40,441.97"/>
    </edge>
    <edge id=":0_10" function="internal">
        <lane id=":0_10_0" index="0" speed="3.65" length="1.44" shape="58.13,419.94 57.99,421.38"/>
    </edge>
    <edge id=":0_13" function="internal">
        <lane id=":0_13_0" index="0" speed="3.65" length="3.23" shape="57.99,421.38 57.47,422.11 56.58,422.13 55.31,421.45"/>
    </edge>
    <edge id=":1_0" function="internal">
        <lane id=":1_0_0" index="0" speed="13.90" length="31.13" shape="121.48,278.28 117.96,285.05 114.71,292.11 111.84,299.32 109.45,306.56"/>
        <lane id=":1_0_1" index="1" speed="13.90" length="31.13" shape="118.68,276.74 115.12,283.60 111.77,290.88 108.81,298.32 106.38,305.66"/>
    </edge>
    <edge id=":1_2" function="internal">
        <lane id=":1_2_0" index="0" speed="13.90" length="6.31" shape="118.68,276.74 115.17,281.99"/>
    </edge>
    <edge id=":1_3" function="internal">
        <lane id=":1_3_0" index="0" speed="8.32" length="2.97" shape="118.68,276.74 116.71,278.96"/>
    </edge>
    <edge id=":1_4" function="internal">
        <lane id=":1_4_0" index="0" speed="3.65" length="1.44" shape="118.68,276.74 117.40,277.40"/>
    </edge>
    <edge id=":1_20" function="internal">
        <lane id=":1_20_0" index="0" speed="13.90" length="25.09" shape="115.17,281.99 113.96,283.80 108.42,289.32 102.06,293.31 94.89,295.75"/>
    </edge>
    <edge id=":1_21" function="internal">
        <lane id=":1_21_0" index="0" speed="8.32" length="20.31" shape="116.71,278.96 114.41,281.55 109.41,282.98 104.57,281.05 100.82,275.83"/>
    </edge>
    <edge id=":1_22" function="internal">
        <lane id=":1_22_0" index="0" speed="3.65" length="3.23" shape="117.40,277.40 116.51,277.37 116.00,276.63 115.88,275.19"/>
    </edge>
    <edge id=":1_5" function="internal">
        <lane id=":1_5_0" index="0" speed="5.54" length="9.45" shape="106.71,273.33 108.17,275.86 109.72,276.76 111.36,276.03 113.07,273.65"/>
    </edge>
    <edge id=":1_6" function="internal">
        <lane id=":1_6_0" index="0" speed="13.90" length="32.77" shape="106.71,273.33 109.18,281.05 110.60,289.79 110.76,298.61 109.45,306.56"/>
        <lane id=":1_6_1" index="1" speed="13.90" length="32.77" shape="103.76,274.58 106.22,281.97 107.59,289.97 107.70,298.05 106.38,305.66"/>
    </edge>
    <edge id=":1_8" function="internal">
        <lane id=":1_8_0" index="0" speed="10.26" length="27.40" shape="103.76,274.58 106.01,282.49 105.27,288.66 101.57,293.07 94.89,295.75"/>
    </edge>
    <edge id=":1_9" function="internal">
        <lane id=":1_9_0" index="0" speed="3.65" length="4.67" shape="103.76,274.58 103.49,276.00 102.91,276.68 102.02,276.62 100.82,275.83"/>
    </edge>
    <edge id=":1_10" function="internal">
        <lane id=":1_10_0" index="0" speed="7.87" length="15.64" shape="93.51,289.50 97.09,287.99 99.01,285.42 99.27,281.78 97.87,277.08"/>
    </edge>
    <edge id=":1_11" function="internal">
        <lane id=":1_11_0" index="0" speed="13.90" length="25.95" shape="93.51,289.50 99.36,287.49 104.57,284.18 109.14,279.56 113.07,273.65"/>
        <lane id=":1_11_1" index="1" speed="13.90" length="28.68" shape="94.20,292.62 100.71,290.40 106.49,286.75 111.55,281.68 115.88,275.19"/>
    </edge>
    <edge id=":1_13" function="internal">
        <lane id=":1_13_0" index="0" speed="8.81" length="24.08" shape="94.20,292.62 101.37,292.02 105.79,294.00 107.46,298.54 106.38,305.66"/>
    </edge>
    <edge id=":1_14" function="internal">
        <lane id=":1_14_0" index="0" speed="3.65" length="4.67" shape="94.20,292.62 95.54,293.14 96.10,293.84 95.89,294.71 94.89,295.75"/>
    </edge>
    <edge id=":1_15" function="internal">
        <lane id=":1_15_0" index="0" speed="5.69" length="9.22" shape="100.24,303.86 100.65,301.14 100.01,299.40 98.32,298.64 95.57,298.87"/>
    </edge>
    <edge id=":1_16" function="internal">
        <lane id=":1_16_0" index="0" speed="13.90" length="28.61" shape="100.24,303.86 102.06,296.73 103.05,289.70 102.77,282.74 100.82,275.83"/>
    </edge>
    <edge id=":1_17" function="internal">
        <lane id=":1_17_0" index="0" speed="13.90" length="32.53" shape="100.24,303.86 102.75,296.32 105.90,288.44 109.43,280.72 113.07,273.65"/>
        <lane id=":1_17_1" index="1" speed="13.90" length="32.53" shape="103.31,304.76 105.78,297.32 108.84,289.66 112.27,282.16 115.88,275.19"/>
    </edge>
    <edge id=":1_19" function="internal">
        <lane id=":1_19_0" index="0" speed="3.65" length="1.44" shape="103.31,304.76 104.41,303.83"/>
    </edge>
    <edge id=":1_23" function="internal">
        <lane id=":1_23_0" index="0" speed="3.65" length="3.23" shape="104.41,303.83 105.29,303.67 105.95,304.28 106.38,305.66"/>
    </edge>
    <edge id=":2_0" function="internal">
        <lane id=":2_0_0" index="0" speed="13.90" length="31.66" shape="208.58,150.24 201.20,152.99 193.85,156.64 187.39,161.34 182.63,167.25"/>
    </edge>
    <edge id=":2_1" function="internal">
        <lane id=":2_1_0" index="0" speed="13.90" length="37.63" shape="208.58,150.24 200.09,152.67 189.93,154.86 179.68,156.27 170.94,156.33"/>
        <lane id=":2_1_1" index="1" speed="13.90" length="37.63" shape="207.57,147.20 199.29,149.61 189.59,151.75 179.81,153.11 171.28,153.15"/>
    </edge>
    <edge id=":2_3" function="internal">
        <lane id=":2_3_0" index="0" speed="7.93" length="23.78" shape="207.57,147.20 201.19,147.43 196.67,144.29 194.95,139.07 196.98,133.01"/>
    </edge>
    <edge id=":2_4" function="internal">
        <lane id=":2_4_0" index="0" speed="3.65" length="4.67" shape="207.57,147.20 206.18,146.82 205.55,146.19 205.68,145.30 206.56,144.17"/>
    </edge>
    <edge id=":2_5" function="internal">
        <lane id=":2_5_0" index="0" speed="5.46" length="10.34" shape="202.23,136.67 200.55,139.66 200.54,141.40 202.21,141.89 205.56,141.13"/>
    </edge>
    <edge id=":2_6" function="internal">
        <lane id=":2_6_0" index="0" speed="13.90" length="36.50" shape="202.23,136.67 197.43,143.68 192.10,151.75 186.92,159.93 182.63,167.25"/>
        <lane id=":2_6_1" index="1" speed="13.90" length="36.50" shape="199.61,134.84 194.78,141.89 189.38,150.07 184.15,158.34 179.83,165.71"/>
    </edge>
    <edge id=":2_8" function="internal">
        <lane id=":2_8_0" index="0" speed="13.90" length="8.66" shape="199.61,134.84 194.16,141.57"/>
    </edge>
    <edge id=":2_9" function="internal">
        <lane id=":2_9_0" index="0" speed="3.65" length="1.44" shape="199.61,134.84 198.26,135.37"/>
    </edge>
    <edge id=":2_20" function="internal">
        <lane id=":2_20_0" index="0" speed="13.90" length="26.64" shape="194.16,141.57 192.65,143.43 185.61,149.34 178.48,152.58 171.28,153.15"/>
    </edge>
    <edge id=":2_21" function="internal">
        <lane id=":2_21_0" index="0" speed="3.65" length="3.23" shape="198.26,135.37 197.38,135.24 196.95,134.45 196.98,133.01"/>
    </edge>
    <edge id=":2_10" function="internal">
        <lane id=":2_10_0" index="0" speed="13.90" length="28.49" shape="171.96,146.79 177.38,146.24 182.92,143.46 188.58,138.44 194.36,131.18"/>
    </edge>
    <edge id=":2_11" function="internal">
        <lane id=":2_11_0" index="0" speed="13.90" length="34.94" shape="171.96,146.79 180.07,146.79 188.93,145.53 197.70,143.49 205.56,141.13"/>
        <lane id=":2_11_1" index="1" speed="13.90" length="34.94" shape="171.62,149.97 179.94,149.95 189.26,148.64 198.50,146.55 206.56,144.17"/>
    </edge>
    <edge id=":2_13" function="internal">
        <lane id=":2_13_0" index="0" speed="8.84" length="22.87" shape="171.62,149.97 178.11,151.59 181.64,154.75 182.22,159.46 179.83,165.71"/>
    </edge>
    <edge id=":2_14" function="internal">
        <lane id=":2_14_0" index="0" speed="3.65" length="4.67" shape="171.62,149.97 172.73,150.89 173.04,151.73 172.56,152.48 171.28,153.15"/>
    </edge>
    <edge id=":2_15" function="internal">
        <lane id=":2_15_0" index="0" speed="5.82" length="9.14" shape="174.22,162.62 175.18,160.12 174.95,158.24 173.54,156.98 170.94,156.33"/>
    </edge>
    <edge id=":2_16" function="internal">
        <lane id=":2_16_0" index="0" speed="13.90" length="37.18" shape="174.22,162.62 178.60,155.17 183.95,146.69 189.48,138.32 194.36,131.18"/>
        <lane id=":2_16_1" index="1" speed="13.90" length="37.18" shape="177.02,164.16 181.37,156.76 186.67,148.38 192.13,140.11 196.98,133.01"/>
    </edge>
    <edge id=":2_18" function="internal">
        <lane id=":2_18_0" index="0" speed="13.90" length="4.35" shape="177.02,164.16 179.81,160.82"/>
    </edge>
    <edge id=":2_19" function="internal">
        <lane id=":2_19_0" index="0" speed="3.65" length="1.44" shape="177.02,164.16 178.30,163.50"/>
    </edge>
    <edge id=":2_22" function="internal">
        <lane id=":2_22_0" index="0" speed="13.90" length="31.89" shape="179.81,160.82 182.34,157.79 190.04,152.06 198.62,147.39 206.56,144.17"/>
    </edge>
    <edge id=":2_23" function="internal">
        <lane id=":2_23_0" index="0" speed="3.65" length="3.23" shape="178.30,163.50 179.20,163.54 179.71,164.27 179.83,165.71"/>
    </edge>
    <edge id=":3_0" function="internal">
        <lane id=":3_0_0" index="0" speed="13.20" length="16.54" shape="377.80,91.22 375.86,93.42 374.28,96.69 373.07,101.03 372.22,106.44"/>
    </edge>
    <edge id=":3_1" function="internal">
        <lane id=":3_1_0" index="0" speed="13.90" length="31.66" shape="377.80,91.22 371.21,95.36 363.68,98.69 355.86,101.46 348.36,103.90"/>
        <lane id=":3_1_1" index="1" speed="13.90" length="31.66" shape="375.83,88.70 369.39,92.75 362.20,95.91 354.70,98.50 347.35,100.86"/>
    </edge>
    <edge id=":3_3" function="internal">
        <lane id=":3_3_0" index="0" speed="13.90" length="4.00" shape="375.83,88.70 372.13,90.21"/>
    </edge>
    <edge id=":3_4" function="internal">
        <lane id=":3_4_0" index="0" speed="3.65" length="1.44" shape="375.83,88.70 374.40,88.81"/>
    </edge>
    <edge id=":3_20" function="internal">
        <lane id=":3_20_0" index="0" speed="13.90" length="26.38" shape="372.13,90.21 371.54,90.45 365.20,90.62 356.80,89.20 346.34,86.20"/>
    </edge>
    <edge id=":3_21" function="internal">
        <lane id=":3_21_0" index="0" speed="3.65" length="3.23" shape="374.40,88.81 373.59,88.42 373.41,87.55 373.87,86.18"/>
    </edge>
    <edge id=":3_5" function="internal">
        <lane id=":3_5_0" index="0" speed="13.77" length="24.24" shape="348.35,80.12 357.22,82.79 364.10,84.26 368.99,84.55 371.90,83.65"/>
    </edge>
    <edge id=":3_6" function="internal">
        <lane id=":3_6_0" index="0" speed="13.90" length="38.62" shape="348.35,80.12 359.54,84.97 367.24,90.97 371.47,98.13 372.22,106.44"/>
        <lane id=":3_6_1" index="1" speed="13.24" length="34.23" shape="347.34,83.16 357.47,87.49 364.46,92.75 368.32,98.95 369.04,106.08"/>
    </edge>
    <edge id=":3_8" function="internal">
        <lane id=":3_8_0" index="0" speed="7.92" length="23.78" shape="347.34,83.16 352.60,86.79 354.35,92.01 352.60,97.22 347.35,100.86"/>
    </edge>
    <edge id=":3_9" function="internal">
        <lane id=":3_9_0" index="0" speed="3.65" length="4.67" shape="347.34,83.16 348.23,84.30 348.36,85.18 347.73,85.81 346.34,86.20"/>
    </edge>
    <edge id=":3_10" function="internal">
        <lane id=":3_10_0" index="0" speed="5.46" length="10.35" shape="345.34,94.79 348.48,93.40 349.53,92.01 348.48,90.62 345.34,89.24"/>
    </edge>
    <edge id=":3_11" function="internal">
        <lane id=":3_11_0" index="0" speed="13.90" length="29.50" shape="345.34,94.79 352.38,92.58 359.22,90.35 365.76,87.54 371.90,83.65"/>
        <lane id=":3_11_1" index="1" speed="13.90" length="29.50" shape="346.35,97.82 353.54,95.54 360.71,93.13 367.57,90.15 373.87,86.18"/>
    </edge>
    <edge id=":3_13" function="internal">
        <lane id=":3_13_0" index="0" speed="10.03" length="9.74" shape="346.35,97.82 355.47,95.46 355.78,95.46"/>
    </edge>
    <edge id=":3_14" function="internal">
        <lane id=":3_14_0" index="0" speed="3.65" length="1.44" shape="346.35,97.82 347.74,98.21"/>
    </edge>
    <edge id=":3_22" function="internal">
        <lane id=":3_22_0" index="0" speed="10.03" length="20.68" shape="355.78,95.46 363.03,95.37 367.91,98.57 369.04,106.08"/>
    </edge>
    <edge id=":3_23" function="internal">
        <lane id=":3_23_0" index="0" speed="3.65" length="3.23" shape="347.74,98.21 348.37,98.84 348.24,99.73 347.35,100.86"/>
    </edge>
    <edge id=":3_15" function="internal">
        <lane id=":3_15_0" index="0" speed="7.57" length="16.75" shape="362.68,105.37 362.05,102.86 359.46,101.77 354.89,102.12 348.36,103.90"/>
    </edge>
    <edge id=":3_16" function="internal">
        <lane id=":3_16_0" index="0" speed="11.48" length="25.50" shape="362.68,105.37 362.01,100.60 358.90,96.32 353.34,92.53 345.34,89.24"/>
        <lane id=":3_16_1" index="1" speed="12.39" length="29.86" shape="365.86,105.73 365.17,99.78 361.68,94.54 355.41,90.01 346.34,86.20"/>
    </edge>
    <edge id=":3_18" function="internal">
        <lane id=":3_18_0" index="0" speed="13.90" length="21.62" shape="365.86,105.73 366.97,99.04 368.67,93.55 370.97,89.26 373.87,86.18"/>
    </edge>
    <edge id=":3_19" function="internal">
        <lane id=":3_19_0" index="0" speed="3.65" length="4.67" shape="365.86,105.73 366.79,104.62 367.63,104.31 368.38,104.80 369.04,106.08"/>
    </edge>
    <edge id=":4_0" function="internal">
        <lane id=":4_0_0" index="0" speed="3.65" length="4.67" shape="569.22,93.96 569.39,95.39 569.04,96.22 568.17,96.43 566.78,96.04"/>
    </edge>
    <edge id=":5_0" function="internal">
        <lane id=":5_0_0" index="0" speed="8.85" length="25.28" shape="314.41,624.27 312.25,630.98 308.03,634.65 302.46,634.99 296.21,631.71"/>
        <lane id=":5_0_1" index="1" speed="7.87" length="19.67" shape="311.23,623.91 309.81,629.71 307.17,632.53 303.31,632.37 298.23,629.23"/>
    </edge>
    <edge id=":5_2" function="internal">
        <lane id=":5_2_0" index="0" speed="3.99" length="3.93" shape="302.27,624.27 303.29,624.90 304.06,624.93 304.59,624.36 304.87,623.20"/>
        <lane id=":5_2_1" index="1" speed="6.24" length="11.80" shape="300.25,626.75 303.30,628.63 305.61,628.73 307.20,627.04 308.05,623.56"/>
    </edge>
    <edge id=":6_0" function="internal">
        <lane id=":6_0_0" index="0" speed="9.14" length="26.14" shape="43.84,149.89 41.76,142.35 42.99,137.25 47.51,134.59 55.33,134.38"/>
        <lane id=":6_0_1" index="1" speed="7.81" length="18.67" shape="46.78,148.64 45.30,143.25 46.18,139.61 49.41,137.71 54.99,137.56"/>
    </edge>
    <edge id=":6_2" function="internal">
        <lane id=":6_2_0" index="0" speed="3.96" length="3.73" shape="54.32,143.92 53.20,143.96 52.55,144.33 52.38,145.06 52.67,146.14"/>
        <lane id=":6_2_1" index="1" speed="6.19" length="11.20" shape="54.65,140.74 51.30,140.83 49.36,141.97 48.84,144.16 49.73,147.39"/>
    </edge>
    <edge id=":7_0" function="internal">
        <lane id=":7_0_0" index="0" speed="12.02" length="25.95" shape="277.96,66.97 268.12,64.05 260.67,62.57 255.60,62.53 252.92,63.94"/>
    </edge>
    <edge id=":7_1" function="internal">
        <lane id=":7_1_0" index="0" speed="7.78" length="23.83" shape="278.96,63.93 273.84,60.21 272.32,54.84 274.33,49.63 279.77,46.39"/>
    </edge>
    <edge id=":7_2" function="internal">
        <lane id=":7_2_0" index="0" speed="3.65" length="4.67" shape="278.96,63.93 278.07,62.80 277.95,61.91 278.58,61.28 279.97,60.90"/>
    </edge>
    <edge id=":7_3" function="internal">
        <lane id=":7_3_0" index="0" speed="5.51" length="10.99" shape="281.21,52.62 277.65,53.77 276.42,55.03 277.53,56.39 280.97,57.86"/>
    </edge>
    <edge id=":7_4" function="internal">
        <lane id=":7_4_0" index="0" speed="13.90" length="32.24" shape="281.21,52.62 273.48,54.19 265.56,56.05 258.38,59.03 252.92,63.94"/>
        <lane id=":7_4_1" index="1" speed="13.90" length="32.24" shape="280.49,49.50 272.47,51.27 263.88,53.58 256.06,57.00 250.30,62.11"/>
    </edge>
    <edge id=":7_6" function="internal">
        <lane id=":7_6_0" index="0" speed="3.65" length="1.44" shape="280.49,49.50 279.14,49.00"/>
    </edge>
    <edge id=":7_11" function="internal">
        <lane id=":7_11_0" index="0" speed="3.65" length="3.23" shape="279.14,49.00 278.57,48.31 278.78,47.44 279.77,46.39"/>
    </edge>
    <edge id=":7_7" function="internal">
        <lane id=":7_7_0" index="0" speed="13.90" length="36.68" shape="245.05,58.45 251.40,52.94 260.54,48.63 270.43,45.44 279.04,43.27"/>
        <lane id=":7_7_1" index="1" speed="13.90" length="36.68" shape="247.67,60.28 253.73,54.97 262.21,51.10 271.45,48.36 279.77,46.39"/>
    </edge>
    <edge id=":7_9" function="internal">
        <lane id=":7_9_0" index="0" speed="13.68" length="5.14" shape="247.67,60.28 251.83,57.25"/>
    </edge>
    <edge id=":7_10" function="internal">
        <lane id=":7_10_0" index="0" speed="3.65" length="1.44" shape="247.67,60.28 249.01,59.75"/>
    </edge>
    <edge id=":7_12" function="internal">
        <lane id=":7_12_0" index="0" speed="13.68" length="28.73" shape="251.83,57.25 258.59,56.35 267.97,57.56 279.97,60.90"/>
    </edge>
    <edge id=":7_13" function="internal">
        <lane id=":7_13_0" index="0" speed="3.65" length="3.23" shape="249.01,59.75 249.90,59.88 250.33,60.67 250.30,62.11"/>
    </edge>
    <edge id=":8_0" function="internal">
        <lane id=":8_0_0" index="0" speed="11.64" length="30.16" shape="489.92,10.82 486.95,10.07 481.63,12.03 473.95,16.70 463.93,24.07"/>
    </edge>
    <edge id=":8_1" function="internal">
        <lane id=":8_1_0" index="0" speed="13.90" length="34.79" shape="489.92,10.82 486.04,8.84 479.08,8.40 469.05,9.50 455.94,12.13"/>
        <lane id=":8_1_1" index="1" speed="13.90" length="38.17" shape="492.35,8.74 487.80,6.15 480.10,5.33 469.24,6.28 455.22,9.01"/>
    </edge>
    <edge id=":8_3" function="internal">
        <lane id=":8_3_0" index="0" speed="3.65" length="1.13" shape="492.35,8.74 492.22,7.62"/>
    </edge>
    <edge id=":8_11" function="internal">
        <lane id=":8_11_0" index="0" speed="3.65" length="3.54" shape="492.22,7.62 492.18,7.31 492.53,6.49 493.40,6.27 494.79,6.67"/>
    </edge>
    <edge id=":8_4" function="internal">
        <lane id=":8_4_0" index="0" speed="13.90" length="45.01" shape="453.77,2.77 469.61,-0.15 482.13,-0.83 491.33,0.76 497.22,4.59"/>
        <lane id=":8_4_1" index="1" speed="13.90" length="41.58" shape="454.49,5.89 469.42,3.06 481.11,2.25 489.57,3.45 494.79,6.67"/>
    </edge>
    <edge id=":8_6" function="internal">
        <lane id=":8_6_0" index="0" speed="7.61" length="2.47" shape="454.49,5.89 456.95,6.17"/>
    </edge>
    <edge id=":8_7" function="internal">
        <lane id=":8_7_0" index="0" speed="3.65" length="1.44" shape="454.49,5.89 455.84,6.40"/>
    </edge>
    <edge id=":8_12" function="internal">
        <lane id=":8_12_0" index="0" speed="7.61" length="21.32" shape="456.95,6.17 460.69,6.59 464.60,10.68 465.32,16.30 461.96,21.55"/>
    </edge>
    <edge id=":8_13" function="internal">
        <lane id=":8_13_0" index="0" speed="3.65" length="3.23" shape="455.84,6.40 456.41,7.09 456.21,7.96 455.22,9.01"/>
    </edge>
    <edge id=":8_8" function="internal">
        <lane id=":8_8_0" index="0" speed="5.65" length="12.25" shape="458.03,16.50 461.22,13.64 461.94,11.95 460.18,11.45 455.94,12.13"/>
    </edge>
    <edge id=":8_9" function="internal">
        <lane id=":8_9_0" index="0" speed="13.26" length="39.45" shape="459.99,19.03 472.38,10.29 482.31,5.32 489.78,4.11 494.79,6.67"/>
    </edge>
    <edge id=":8_10" function="internal">
        <lane id=":8_10_0" index="0" speed="3.65" length="4.67" shape="459.99,19.03 461.43,18.92 462.24,19.30 462.42,20.18 461.96,21.55"/>
    </edge>
    <edge id=":9_0" function="internal">
        <lane id=":9_0_0" index="0" speed="8.98" length="21.99" shape="-0.23,324.73 -2.39,318.82 -1.86,314.14 1.34,310.70 7.23,308.49"/>
        <lane id=":9_0_1" index="1" speed="7.68" length="15.71" shape="2.59,323.21 1.05,318.99 1.42,315.65 3.71,313.20 7.92,311.62"/>
    </edge>
    <edge id=":9_2" function="internal">
        <lane id=":9_2_0" index="0" speed="3.91" length="3.14" shape="9.30,317.87 8.46,318.18 8.00,318.68 7.92,319.34 8.23,320.19"/>
        <lane id=":9_2_1" index="1" speed="6.09" length="9.42" shape="8.61,314.74 6.08,315.69 4.71,317.16 4.49,319.17 5.41,321.70"/>
    </edge>

    <edge id="1" from="0" to="9" priority="-1">
        <lane id="1_0" index="0" speed="13.90" length="111.49" shape="52.49,422.97 -0.23,324.73"/>
        <lane id="1_1" index="1" speed="13.90" length="111.49" shape="55.31,421.45 2.59,323.21"/>
    </edge>
    <edge id="10" from="0" to="1" priority="-1">
        <lane id="10_0" index="0" speed="13.90" length="118.72" shape="66.91,417.81 100.24,303.86"/>
        <lane id="10_1" index="1" speed="13.90" length="118.72" shape="69.98,418.71 103.31,304.76"/>
    </edge>
    <edge id="11" from="1" to="2" priority="-1">
        <lane id="11_0" index="0" speed="13.90" length="126.75" shape="113.07,273.65 174.22,162.62"/>
        <lane id="11_1" index="1" speed="13.90" length="126.75" shape="115.88,275.19 177.02,164.16"/>
    </edge>
    <edge id="12" from="2" to="3" priority="-1">
        <lane id="12_0" index="0" speed="13.90" length="147.26" shape="205.56,141.13 345.34,94.79"/>
        <lane id="12_1" index="1" speed="13.90" length="147.26" shape="206.56,144.17 346.35,97.82"/>
    </edge>
    <edge id="13" from="7" to="8" priority="-1">
        <lane id="13_0" index="0" speed="13.90" length="179.36" shape="279.04,43.27 453.77,2.77"/>
        <lane id="13_1" index="1" speed="13.90" length="179.36" shape="279.77,46.39 454.49,5.89"/>
    </edge>
    <edge id="14" from="5" to="3" priority="-1">
        <lane id="14_0" index="0" speed="13.90" length="521.05" shape="304.87,623.20 362.68,105.37"/>
        <lane id="14_1" index="1" speed="13.90" length="521.05" shape="308.05,623.56 365.86,105.73"/>
    </edge>
    <edge id="15" from="9" to="0" priority="-1">
        <lane id="15_0" index="0" speed="13.90" length="111.49" shape="8.23,320.19 60.95,418.43"/>
        <lane id="15_1" index="1" speed="13.90" length="111.49" shape="5.41,321.70 58.13,419.94"/>
    </edge>
    <edge id="16" from="1" to="9" priority="-1">
        <lane id="16_0" index="0" speed="13.90" length="88.34" shape="95.57,298.87 9.30,317.87"/>
        <lane id="16_1" index="1" speed="13.90" length="88.34" shape="94.89,295.75 8.61,314.74"/>
    </edge>
    <edge id="17" from="6" to="1" priority="-1">
        <lane id="17_0" index="0" speed="13.90" length="138.19" shape="52.67,146.14 106.71,273.33"/>
        <lane id="17_1" index="1" speed="13.90" length="138.19" shape="49.73,147.39 103.76,274.58"/>
    </edge>
    <edge id="18" from="2" to="6" priority="-1">
        <lane id="18_0" index="0" speed="13.90" length="117.28" shape="170.94,156.33 54.32,143.92"/>
        <lane id="18_1" index="1" speed="13.90" length="117.28" shape="171.28,153.15 54.65,140.74"/>
    </edge>
    <edge id="19" from="7" to="2" priority="-1">
        <lane id="19_0" index="0" speed="13.90" length="88.65" shape="252.92,63.94 202.23,136.67"/>
        <lane id="19_1" index="1" speed="13.90" length="88.65" shape="250.30,62.11 199.61,134.84"/>
    </edge>
    <edge id="2" from="9" to="1" priority="-1">
        <lane id="2_0" index="0" speed="13.90" length="88.34" shape="7.23,308.49 93.51,289.50"/>
        <lane id="2_1" index="1" speed="13.90" length="88.34" shape="7.92,311.62 94.20,292.62"/>
    </edge>
    <edge id="20" from="3" to="7" priority="-1">
        <lane id="20_0" index="0" speed="13.90" length="70.96" shape="345.34,89.24 277.96,66.97"/>
        <lane id="20_1" index="1" speed="13.90" length="70.96" shape="346.34,86.20 278.96,63.93"/>
    </edge>
    <edge id="21" from="8" to="3" priority="-1">
        <lane id="21_0" index="0" speed="13.90" length="109.21" shape="463.93,24.07 377.80,91.22"/>
        <lane id="21_1" index="1" speed="13.90" length="109.21" shape="461.96,21.55 375.83,88.70"/>
    </edge>
    <edge id="22" from="4" to="8" priority="-1">
        <lane id="22_0" index="0" speed="13.90" length="114.72" shape="564.35,98.11 489.92,10.82"/>
        <lane id="22_1" index="1" speed="13.90" length="114.72" shape="566.78,96.04 492.35,8.74"/>
    </edge>
    <edge id="23" from="5" to="0" priority="-1">
        <lane id="23_0" index="0" speed="13.90" length="292.58" shape="296.21,631.71 69.36,446.93"/>
        <lane id="23_1" index="1" speed="13.90" length="292.58" shape="298.23,629.23 71.38,444.45"/>
    </edge>
    <edge id="24" from="1" to="0" priority="-1">
        <lane id="24_0" index="0" speed="13.90" length="118.72" shape="109.45,306.56 76.12,420.50"/>
        <lane id="24_1" index="1" speed="13.90" length="118.72" shape="106.38,305.66 73.05,419.60"/>
    </edge>
    <edge id="25" from="2" to="1" priority="-1">
        <lane id="25_0" index="0" speed="13.90" length="126.75" shape="182.63,167.25 121.48,278.28"/>
        <lane id="25_1" index="1" speed="13.90" length="126.75" shape="179.83,165.71 118.68,276.74"/>
    </edge>
    <edge id="26" from="3" to="2" priority="-1">
        <lane id="26_0" index="0" speed="13.90" length="147.26" shape="348.36,103.90 208.58,150.24"/>
        <lane id="26_1" index="1" speed="13.90" length="147.26" shape="347.35,100.86 207.57,147.20"/>
    </edge>
    <edge id="27" from="8" to="7" priority="-1">
        <lane id="27_0" index="0" speed="13.90" length="179.36" shape="455.94,12.13 281.21,52.62"/>
        <lane id="27_1" index="1" speed="13.90" length="179.36" shape="455.22,9.01 280.49,49.50"/>
    </edge>
    <edge id="28" from="3" to="5" priority="-1">
        <lane id="28_0" index="0" speed="13.90" length="521.05" shape="372.22,106.44 314.41,624.27"/>
        <lane id="28_1" index="1" speed="13.90" length="521.05" shape="369.04,106.08 311.23,623.91"/>
    </edge>
    <edge id="3" from="1" to="6" priority="-1">
        <lane id="3_0" index="0" speed="13.90" length="138.19" shape="97.87,277.08 43.84,149.89"/>
        <lane id="3_1" index="1" speed="13.90" length="138.19" shape="100.82,275.83 46.78,148.64"/>
    </edge>
    <edge id="4" from="6" to="2" priority="-1">
        <lane id="4_0" index="0" speed="13.90" length="117.28" shape="55.33,134.38 171.96,146.79"/>
        <lane id="4_1" index="1" speed="13.90" length="117.28" shape="54.99,137.56 171.62,149.97"/>
    </edge>
    <edge id="5" from="2" to="7" priority="-1">
        <lane id="5_0" index="0" speed="13.90" length="88.65" shape="194.36,131.18 245.05,58.45"/>
        <lane id="5_1" index="1" speed="13.90" length="88.65" shape="196.98,133.01 247.67,60.28"/>
    </edge>
    <edge id="6" from="7" to="3" priority="-1">
        <lane id="6_0" index="0" speed="13.90" length="70.96" shape="280.97,57.86 348.35,80.12"/>
        <lane id="6_1" index="1" speed="13.90" length="70.96" shape="279.97,60.90 347.34,83.16"/>
    </edge>
    <edge id="7" from="3" to="8" priority="-1">
        <lane id="7_0" index="0" speed="13.90" length="109.21" shape="371.90,83.65 458.03,16.50"/>