<?xml version="1.0" encoding="UTF-8"?>
<edges xmlns:xsi="http://www.w3.org/2001/XMLSchema-instance" xsi:noNamespaceSchemaLocation="http://sumo.dlr.de/xsd/edges_file.xsd">
   <edge id="1" from="0" to="9" numLanes="2" speed="13.9" />
   <edge id="2" from="9" to="1" numLanes="2" speed="13.9" />

   <edge id="3" from="1" to="6" numLanes="2" speed="13.9" />
   <edge id="4" from="6" to="2" numLanes="2" speed="13.9" />

   <edge id="5" from="2" to="7" numLanes="2" speed="13.9" />
   <edge id="6" from="7" to="3" numLanes="2" speed="13.9" />

   <edge id="7" from="3" to="8" numLanes="2" speed="13.9" />
   <edge id="8" from="8" to="4" numLanes="2" speed="13.9" />



   <edge id="9" from="0" to="5" numLanes="2" speed="13.9" />
   <edge id="10" from="0" to="1" numLanes="2" speed="13.9" />

   <edge id="11" from="1" to="2" numLanes="2" speed="13.9" />
   <edge id="12" from="2" to="3" numLanes="2" speed="13.9" />

   <edge id="13" from="7" to="8" numLanes="2" speed="13.9" />
   <edge id="14" from="5" to="3" numLanes="2" speed="13.9" />

   




   <edge id="15" from="9" to="0" numLanes="2" speed="13.9" />
   <edge id="16" from="1" to="9" numLanes="2" speed="13.9" />

   <edge id="17" from="6" to="1" numLanes="2" speed="13.9" />
   <edge id="18" from="2" to="6" numLanes="2" speed="13.9" />

   <edge id="19" from="7" to="2" numLanes="2" speed="13.9" />
   <edge id="20" from="3" to="7" numLanes="2" speed="13.9" />

   <edge id="21" from="8" to="3" numLanes="2" speed="13.9" />
   <edge id="22" from="4" to="8" numLanes="2" speed="13.9" />



   <edge id="23" from="5" to="0" numLanes="2" speed="13.9" />
   <edge id="24" from="1" to="0" numLanes="2" speed="13.9" />

   <edge id="25" from="2" to="1" numLanes="2" speed="13.9" />
   <edge id="26" from="3" to="2" numLanes="2" speed="13.9" />

   <edge id="27" from="8" to="7" numLanes="2" speed="13.9" />
   <edge id="28" from="3" to="5" numLanes="2" speed="13.9" />

  

</edges>
