<?xml version="1.0" encoding="UTF-8"?>

<!-- generated on 2023-05-11 04:17:54 by Eclipse SUMO netconvert Version 1.16.0
<configuration xmlns:xsi="http://www.w3.org/2001/XMLSchema-instance" xsi:noNamespaceSchemaLocation="http://sumo.dlr.de/xsd/netconvertConfiguration.xsd">

    <input>
        <node-files value="noOptim.nod.xml"/>
        <edge-files value="noOptim.edg.xml"/>
    </input>

    <output>
        <output-file value="noOptim.net.xml"/>
    </output>

</configuration>
-->

<net version="1.16" junctionCornerDetail="5" limitTurnSpeed="5.50" xmlns:xsi="http://www.w3.org/2001/XMLSchema-instance" xsi:noNamespaceSchemaLocation="http://sumo.dlr.de/xsd/net_file.xsd">

    <location netOffset="-143.00,-82.00" convBoundary="0.00,0.00,568.00,635.40" origBoundary="143.00,82.00,711.00,717.40" projParameter="!"/>

    <edge id=":1_0" function="internal">
        <lane id=":1_0_0" index="0" speed="6.24" length="9.39" shape="96.53,288.83 98.91,287.91 100.25,286.41 100.56,284.34 99.84,281.71"/>
    </edge>
    <edge id=":1_1" function="internal">
        <lane id=":1_1_0" index="0" speed="12.70" length="16.81" shape="97.22,291.96 100.43,290.71 103.49,288.44 106.39,285.13 109.15,280.78"/>
    </edge>
    <edge id=":1_2" function="internal">
        <lane id=":1_2_0" index="0" speed="13.90" length="17.00" shape="102.29,296.86 103.79,292.03 104.60,288.53 104.38,285.10 102.78,280.45"/>
    </edge>
    <edge id=":1_3" function="internal">
        <lane id=":1_3_0" index="0" speed="13.90" length="17.20" shape="102.29,296.86 103.80,291.88 105.06,288.54 106.64,285.34 109.15,280.78"/>
        <lane id=":1_3_1" index="1" speed="13.90" length="17.20" shape="105.36,297.76 106.81,292.98 108.02,289.78 109.55,286.70 111.95,282.32"/>
    </edge>
    <edge id=":2_0" function="internal">
        <lane id=":2_0_0" index="0" speed="10.39" length="15.18" shape="176.25,147.24 179.43,147.02 182.54,145.66 185.57,143.17 188.53,139.55"/>
    </edge>
    <edge id=":2_1" function="internal">
        <lane id=":2_1_0" index="0" speed="13.90" length="18.68" shape="176.25,147.24 181.54,147.68 185.21,147.52 188.80,146.67 193.86,145.01"/>
        <lane id=":2_1_1" index="1" speed="13.90" length="18.68" shape="175.92,150.42 181.61,150.90 185.55,150.74 189.42,149.83 194.87,148.04"/>
    </edge>
    <edge id=":2_3" function="internal">
        <lane id=":2_3_0" index="0" speed="13.90" length="18.44" shape="178.36,155.11 181.09,150.32 183.13,147.13 185.33,144.05 188.53,139.55"/>
        <lane id=":2_3_1" index="1" speed="13.90" length="18.44" shape="181.16,156.65 183.85,151.95 185.85,148.82 188.01,145.80 191.15,141.38"/>
    </edge>
    <edge id=":2_5" function="internal">
        <lane id=":2_5_0" index="0" speed="13.90" length="4.47" shape="181.16,156.65 183.68,152.95"/>
    </edge>
    <edge id=":2_6" function="internal">
        <lane id=":2_6_0" index="0" speed="13.90" length="12.41" shape="183.68,152.95 183.87,152.68 186.60,150.64 190.03,149.47 194.87,148.04"/>
    </edge>
    <edge id=":3_0" function="internal">
        <lane id=":3_0_0" index="0" speed="10.00" length="12.50" shape="358.29,83.41 362.72,84.71 366.22,85.37 368.79,85.40 370.43,84.80"/>
        <lane id=":3_0_1" index="1" speed="11.11" length="15.58" shape="357.29,86.44 362.51,87.91 366.77,88.55 370.06,88.35 372.40,87.32"/>
    </edge>
    <edge id=":3_2" function="internal">
        <lane id=":3_2_0" index="0" speed="13.90" length="15.14" shape="357.29,90.83 361.44,89.55 364.30,88.63 366.94,87.30 370.43,84.80"/>
        <lane id=":3_2_1" index="1" speed="13.90" length="15.14" shape="358.30,93.86 362.75,92.48 365.82,91.47 368.65,90.02 372.40,87.32"/>
    </edge>
    <edge id=":3_4" function="internal">
        <lane id=":3_4_0" index="0" speed="12.13" length="6.83" shape="363.67,96.52 364.38,93.14 365.75,90.06"/>
        <lane id=":3_4_1" index="1" speed="11.00" length="7.23" shape="366.85,96.87 367.43,94.13 368.55,91.63 369.54,90.27"/>
    </edge>
    <edge id=":3_6" function="internal">
        <lane id=":3_6_0" index="0" speed="12.13" length="7.07" shape="365.75,90.06 367.77,87.28 370.43,84.80"/>
    </edge>
    <edge id=":3_7" function="internal">
        <lane id=":3_7_0" index="0" speed="11.00" length="4.12" shape="369.54,90.27 370.21,89.36 372.40,87.32"/>
    </edge>
    <edge id=":5_0" function="internal">
        <lane id=":5_0_0" index="0" speed="3.99" length="3.93" shape="302.27,624.27 303.29,624.90 304.06,624.93 304.59,624.36 304.87,623.20"/>
        <lane id=":5_0_1" index="1" speed="6.24" length="11.80" shape="300.25,626.75 303.30,628.63 305.61,628.73 307.20,627.04 308.05,623.56"/>
    </edge>
    <edge id=":6_0" function="internal">
        <lane id=":6_0_0" index="0" speed="6.19" length="11.20" shape="39.58,139.88 38.69,136.64 39.22,134.46 41.16,133.32 44.51,133.23"/>
        <lane id=":6_0_1" index="1" speed="3.96" length="3.73" shape="42.53,138.63 42.23,137.55 42.41,136.82 43.05,136.44 44.17,136.41"/>
    </edge>
    <edge id=":7_0" function="internal">
        <lane id=":7_0_0" index="0" speed="13.90" length="20.72" shape="248.36,53.70 252.44,49.33 256.57,47.56 261.47,46.89 267.81,45.87"/>
        <lane id=":7_0_1" index="1" speed="13.90" length="20.72" shape="250.98,55.53 254.70,51.57 258.34,50.17 262.69,49.82 268.53,48.99"/>
    </edge>
    <edge id=":7_2" function="internal">
        <lane id=":7_2_0" index="0" speed="10.24" length="18.62" shape="250.98,55.53 253.68,53.10 257.46,51.99 262.35,52.18 268.32,53.68"/>
        <lane id=":7_2_1" index="1" speed="9.81" length="17.01" shape="250.98,55.53 252.90,54.32 256.26,54.11 261.06,54.91 267.31,56.71"/>
    </edge>
    <edge id=":8_0" function="internal">
        <lane id=":8_0_0" index="0" speed="13.42" length="26.54" shape="467.37,-0.38 477.00,-2.23 484.51,-2.81 489.88,-2.14 493.14,-0.20"/>
        <lane id=":8_0_1" index="1" speed="12.55" length="23.14" shape="468.10,2.74 476.82,0.99 483.49,0.26 488.12,0.56 490.70,1.88"/>
    </edge>
    <edge id=":8_2" function="internal">
        <lane id=":8_2_0" index="0" speed="10.83" length="5.52" shape="470.15,7.05 474.69,3.89"/>
        <lane id=":8_2_1" index="1" speed="9.83" length="12.37" shape="472.12,9.57 478.95,4.68 482.43,2.78"/>
    </edge>
    <edge id=":8_4" function="internal">
        <lane id=":8_4_0" index="0" speed="10.83" length="20.44" shape="474.69,3.89 478.16,1.47 484.66,-1.59 489.65,-2.15 493.14,-0.20"/>
    </edge>
    <edge id=":8_5" function="internal">
        <lane id=":8_5_0" index="0" speed="9.83" length="8.85" shape="482.43,2.78 484.32,1.76 488.24,0.83 490.70,1.88"/>
    </edge>
    <edge id=":9_0" function="internal">
        <lane id=":9_0_0" index="0" speed="6.09" length="9.42" shape="-4.23,317.27 -5.16,314.74 -4.93,312.73 -3.56,311.26 -1.03,310.31"/>
        <lane id=":9_0_1" index="1" speed="3.91" length="3.14" shape="-1.41,315.76 -1.72,314.91 -1.64,314.24 -1.19,313.75 -0.34,313.44"/>
    </edge>

    <edge id="1" from="0" to="9" priority="-1">
        <lane id="1_0" index="0" speed="13.90" length="122.73" shape="53.80,425.41 -4.23,317.27"/>
        <lane id="1_1" index="1" speed="13.90" length="122.73" shape="56.62,423.90 -1.41,315.76"/>
    </edge>
    <edge id="10" from="0" to="1" priority="-1">
        <lane id="10_0" index="0" speed="13.90" length="137.21" shape="63.76,428.55 102.29,296.86"/>
        <lane id="10_1" index="1" speed="13.90" length="137.21" shape="66.84,429.44 105.36,297.76"/>
    </edge>
    <edge id="11" from="1" to="2" priority="-1">
        <lane id="11_0" index="0" speed="13.90" length="143.47" shape="109.15,280.78 178.36,155.11"/>
        <lane id="11_1" index="1" speed="13.90" length="143.47" shape="111.95,282.32 181.16,156.65"/>
    </edge>
    <edge id="12" from="2" to="3" priority="-1">
        <lane id="12_0" index="0" speed="13.90" length="172.18" shape="193.86,145.01 357.29,90.83"/>
        <lane id="12_1" index="1" speed="13.90" length="172.18" shape="194.87,148.04 358.30,93.86"/>
    </edge>
    <edge id="13" from="7" to="8" priority="-1">
        <lane id="13_0" index="0" speed="13.90" length="204.85" shape="267.81,45.87 467.37,-0.38"/>
        <lane id="13_1" index="1" speed="13.90" length="204.85" shape="268.53,48.99 468.10,2.74"/>
    </edge>
    <edge id="14" from="5" to="3" priority="-1">
        <lane id="14_0" index="0" speed="13.90" length="529.96" shape="304.87,623.20 363.67,96.52"/>
        <lane id="14_1" index="1" speed="13.90" length="529.96" shape="308.05,623.56 366.85,96.87"/>
    </edge>
    <edge id="2" from="9" to="1" priority="-1">
        <lane id="2_0" index="0" speed="13.90" length="99.90" shape="-1.03,310.31 96.53,288.83"/>
        <lane id="2_1" index="1" speed="13.90" length="99.90" shape="-0.34,313.44 97.22,291.96"/>
    </edge>
    <edge id="3" from="1" to="6" priority="-1">
        <lane id="3_0" index="0" speed="13.90" length="154.10" shape="99.84,281.71 39.58,139.88"/>
        <lane id="3_1" index="1" speed="13.90" length="154.10" shape="102.78,280.45 42.53,138.63"/>
    </edge>
    <edge id="4" from="6" to="2" priority="-1">
        <lane id="4_0" index="0" speed="13.90" length="132.49" shape="44.51,133.23 176.25,147.24"/>
        <lane id="4_1" index="1" speed="13.90" length="132.49" shape="44.17,136.41 175.92,150.42"/>
    </edge>
    <edge id="5" from="2" to="7" priority="-1">
        <lane id="5_0" index="0" speed="13.90" length="104.64" shape="188.53,139.55 248.36,53.70"/>
        <lane id="5_1" index="1" speed="13.90" length="104.64" shape="191.15,141.38 250.98,55.53"/>
    </edge>
    <edge id="6" from="7" to="3" priority="-1">
        <lane id="6_0" index="0" speed="13.90" length="94.76" shape="268.32,53.68 358.29,83.41"/>
        <lane id="6_1" index="1" speed="13.90" length="94.76" shape="267.31,56.71 357.29,86.44"/>
    </edge>
    <edge id="7" from="3" to="8" priority="-1">
        <lane id="7_0" index="0" speed="13.90" length="126.45" shape="370.43,84.80 470.15,7.05"/>
        <lane id="7_1" index="1" speed="13.90" length="126.45" shape="372.40,87.32 472.12,9.57"/>
    </edge>
    <edge id="8" from="8" to="4" priority="-1">
        <lane id="8_0" index="0" speed="13.90" length="121.02" shape="493.14,-0.20 571.65,91.89"/>
        <lane id="8_1" index="1" speed="13.90" length="121.02" shape="490.70,1.88 569.22,93.96"/>
    </edge>
    <edge id="9" from="0" to="5" priority="-1">
        <lane id="9_0" index="0" speed="13.90" length="302.02" shape="68.10,433.52 302.27,624.27"/>
        <lane id="9_1" index="1" speed="13.90" length="302.02" shape="66.08,436.00 300.25,626.75"/>
    </edge>

    <junction id="0" type="dead_end" x="66.00" y="438.00" incLanes="" intLanes="" shape="65.07,437.24 69.11,432.28 68.51,431.59 68.35,431.21 68.27,430.80 68.27,430.36 68.37,429.89 62.23,428.10 61.52,428.37 60.91,427.79 60.12,426.72 59.16,425.17 58.03,423.14 52.39,426.17 54.26,429.20 55.99,431.16 57.77,432.49 59.77,433.66 62.14,435.09"/>
    <junction id="1" type="priority" x="109.00" y="291.00" incLanes="2_0 2_1 10_0 10_1" intLanes=":1_0_0 :1_1_0 :1_2_0 :1_3_0 :1_3_1" shape="113.35,283.09 107.75,280.01 106.50,281.54 105.91,281.71 105.34,281.49 104.79,280.86 104.25,279.83 98.36,282.33 98.89,284.69 98.69,285.60 98.17,286.34 97.33,286.89 96.19,287.27 97.57,293.52 99.83,293.42 100.52,293.77 100.90,294.38 100.97,295.26 100.75,296.41 106.89,298.21 107.90,294.85 108.71,292.38 109.50,290.39 110.43,288.46 111.66,286.17">
        <request index="0" response="00000" foes="00000" cont="0"/>
        <request index="1" response="00000" foes="11100" cont="0"/>
        <request index="2" response="00010" foes="00010" cont="0"/>
        <request index="3" response="00010" foes="00010" cont="0"/>
        <request index="4" response="00010" foes="00010" cont="0"/>
    </junction>
    <junction id="2" type="priority" x="185.00" y="153.00" incLanes="4_0 4_1 11_0 11_1" intLanes=":2_0_0 :2_1_0 :2_1_1 :2_3_0 :2_3_1 :2_6_0" shape="195.37,149.56 193.36,143.49 192.26,143.68 192.01,143.56 191.96,143.29 192.11,142.86 192.46,142.29 187.21,138.63 185.44,140.94 183.66,142.79 181.87,144.19 180.06,145.13 178.25,145.62 176.42,145.65 175.75,152.02 176.93,152.38 177.22,152.72 177.33,153.16 177.24,153.70 176.96,154.34 182.56,157.43 184.28,154.72 185.91,152.99 187.65,151.91 189.69,151.19 192.20,150.51">
        <request index="0" response="000000" foes="011000" cont="0"/>
        <request index="1" response="000000" foes="111000" cont="0"/>
        <request index="2" response="000000" foes="111000" cont="0"/>
        <request index="3" response="000111" foes="000111" cont="0"/>
        <request index="4" response="000111" foes="000111" cont="0"/>
        <request index="5" response="000110" foes="000110" cont="1"/>
    </junction>
    <junction id="3" type="priority" x="369.00" y="92.00" incLanes="6_0 6_1 12_0 12_1 14_0 14_1" intLanes=":3_0_0 :3_0_1 :3_2_0 :3_2_1 :3_6_0 :3_7_0" shape="373.38,88.58 369.45,83.54 367.51,83.94 365.94,83.78 363.96,83.39 361.58,82.76 358.79,81.89 356.79,87.96 357.69,88.41 357.80,88.63 357.69,88.86 357.35,89.08 356.79,89.31 358.80,95.38 360.73,94.97 361.38,95.04 361.82,95.29 362.05,95.72 362.08,96.34 368.44,97.05 369.24,93.87 369.95,92.41 370.88,91.04 372.03,89.77">
        <request index="0" response="000000" foes="111100" cont="0"/>
        <request index="1" response="000000" foes="111100" cont="0"/>
        <request index="2" response="110011" foes="110011" cont="0"/>
        <request index="3" response="110011" foes="110011" cont="0"/>
        <request index="4" response="000011" foes="001111" cont="1"/>
        <request index="5" response="000011" foes="001111" cont="1"/>
    </junction>
    <junction id="4" type="dead_end" x="568.00" y="95.00" incLanes="8_0 8_1" intLanes="" shape="572.87,90.85 568.00,95.00"/>
    <junction id="5" type="priority" x="308.34" y="635.40" incLanes="9_0 9_1" intLanes=":5_0_0 :5_0_1" shape="309.64,623.74 303.28,623.03 299.24,627.99 302.06,629.93 304.44,630.81 306.39,630.63 307.91,629.39 308.99,627.09">
        <request index="0" response="00" foes="00" cont="0"/>
        <request index="1" response="00" foes="00" cont="0"/>
    </junction>
    <junction id="6" type="priority" x="44.00" y="138.00" incLanes="3_0 3_1" intLanes=":6_0_0 :6_0_1" shape="38.11,140.50 44.00,138.00 44.68,131.64 41.49,131.56 39.14,132.11 37.62,133.28 36.95,135.06 37.11,137.47">
        <request index="0" response="00" foes="00" cont="0"/>
        <request index="1" response="00" foes="00" cont="0"/>
    </junction>
    <junction id="7" type="priority" x="254.00" y="54.00" incLanes="5_0 5_1" intLanes=":7_0_0 :7_0_1 :7_2_0 :7_2_1" shape="266.81,58.23 268.82,52.16 268.89,50.55 267.45,44.31 262.64,45.18 258.78,45.60 255.58,46.09 252.75,47.12 250.00,49.19 247.04,52.79 252.29,56.45 254.67,55.56 256.78,55.67 259.51,56.15 262.85,57.01">
        <request index="0" response="0000" foes="0000" cont="0"/>
        <request index="1" response="0000" foes="0000" cont="0"/>
        <request index="2" response="0000" foes="0000" cont="0"/>
        <request index="3" response="0000" foes="0000" cont="0"/>
    </junction>
    <junction id="8" type="priority" x="487.00" y="0.00" incLanes="13_0 13_1 7_0 7_1" intLanes=":8_0_0 :8_0_1 :8_4_0 :8_5_0" shape="489.48,2.91 494.35,-1.24 492.20,-2.89 489.09,-3.93 485.01,-4.35 479.98,-4.16 473.98,-3.36 467.01,-1.94 468.46,4.30 469.17,5.79 473.10,10.83 477.42,7.60 481.10,5.14 484.15,3.44 486.56,2.50 488.34,2.32">
        <request index="0" response="0000" foes="1100" cont="0"/>
        <request index="1" response="0000" foes="1100" cont="0"/>
        <request index="2" response="0011" foes="0011" cont="1"/>
        <request index="3" response="0011" foes="0011" cont="1"/>
    </junction>
    <junction id="9" type="priority" x="0.00" y="315.00" incLanes="1_0 1_1" intLanes=":9_0_0 :9_0_1" shape="-5.64,318.03 0.00,315.00 -1.38,308.75 -3.79,309.51 -5.52,310.59 -6.57,311.98 -6.94,313.68 -6.63,315.70">
        <request index="0" response="00" foes="00" cont="0"/>
        <request index="1" response="00" foes="00" cont="0"/>
    </junction>

    <junction id=":2_6_0" type="internal" x="183.68" y="152.95" incLanes=":2_5_0 4_0 4_1" intLanes=":2_1_0 :2_1_1"/>
    <junction id=":3_6_0" type="internal" x="365.75" y="90.06" incLanes=":3_4_0 6_0 6_1" intLanes=":3_0_0 :3_0_1 :3_2_0 :3_2_1"/>
    <junction id=":3_7_0" type="internal" x="369.54" y="90.27" incLanes=":3_4_1 6_0 6_1" intLanes=":3_0_0 :3_0_1 :3_2_0 :3_2_1"/>
    <junction id=":8_4_0" type="internal" x="474.69" y="3.89" incLanes=":8_2_0 13_0 13_1" intLanes=":8_0_0 :8_0_1"/>
    <junction id=":8_5_0" type="internal" x="482.43" y="2.78" incLanes=":8_2_1 13_0 13_1" intLanes=":8_0_0 :8_0_1"/>

    <connection from="1" to="2" fromLane="0" toLane="0" via=":9_0_0" dir="l" state="M"/>
    <connection from="1" to="2" fromLane="1" toLane="1" via=":9_0_1" dir="l" state="M"/>
    <connection from="10" to="3" fromLane="0" toLane="1" via=":1_2_0" dir="R" state="m"/>
    <connection from="10" to="11" fromLane="0" toLane="0" via=":1_3_0" dir="s" state="m"/>
    <connection from="10" to="11" fromLane="1" toLane="1" via=":1_3_1" dir="s" state="m"/>
    <connection from="11" to="5" fromLane="0" toLane="0" via=":2_3_0" dir="s" state="m"/>
    <connection from="11" to="5" fromLane="1" toLane="1" via=":2_3_1" dir="s" state="m"/>
    <connection from="11" to="12" fromLane="1" toLane="1" via=":2_5_0" dir="L" state="m"/>
    <connection from="12" to="7" fromLane="0" toLane="0" via=":3_2_0" dir="s" state="m"/>
    <connection from="12" to="7" fromLane="1" toLane="1" via=":3_2_1" dir="s" state="m"/>
    <connection from="13" to="8" fromLane="0" toLane="0" via=":8_0_0" dir="l" state="M"/>
    <connection from="13" to="8" fromLane="1" toLane="1" via=":8_0_1" dir="l" state="M"/>
    <connection from="14" to="7" fromLane="0" toLane="0" via=":3_4_0" dir="l" state="m"/>
    <connection from="14" to="7" fromLane="1" toLane="1" via=":3_4_1" dir="l" state="m"/>
    <connection from="2" to="3" fromLane="0" toLane="0" via=":1_0_0" dir="r" state="M"/>
    <connection from="2" to="11" fromLane="1" toLane="0" via=":1_1_0" dir="R" state="M"/>
    <connection from="3" to="4" fromLane="0" toLane="0" via=":6_0_0" dir="l" state="M"/>
    <connection from="3" to="4" fromLane="1" toLane="1" via=":6_0_1" dir="l" state="M"/>
    <connection from="4" to="5" fromLane="0" toLane="0" via=":2_0_0" dir="r" state="M"/>
    <connection from="4" to="12" fromLane="0" toLane="0" via=":2_1_0" dir="s" state="M"/>
    <connection from="4" to="12" fromLane="1" toLane="1" via=":2_1_1" dir="s" state="M"/>
    <connection from="5" to="13" fromLane="0" toLane="0" via=":7_0_0" dir="s" state="M"/>
    <connection from="5" to="13" fromLane="1" toLane="1" via=":7_0_1" dir="s" state="M"/>
    <connection from="5" to="6" fromLane="1" toLane="0" via=":7_2_0" dir="l" state="M"/>
    <connection from="5" to="6" fromLane="1" toLane="1" via=":7_2_1" dir="l" state="M"/>
    <connection from="6" to="7" fromLane="0" toLane="0" via=":3_0_0" dir="r" state="M"/>
    <connection from="6" to="7" fromLane="1" toLane="1" via=":3_0_1" dir="r" state="M"/>
    <connection from="7" to="8" fromLane="0" toLane="0" via=":8_2_0" dir="l" state="m"/>
    <connection from="7" to="8" fromLane="1" toLane="1" via=":8_2_1" dir="l" state="m"/>
    <connection from="9" to="14" fromLane="0" toLane="0" via=":5_0_0" dir="r" state="M"/>
    <connection from="9" to="14" fromLane="1" toLane="1" via=":5_0_1" dir="r" state="M"/>

    <connection from=":1_0" to="3" fromLane="0" toLane="0" dir="r" state="M"/>
    <connection from=":1_1" to="11" fromLane="0" toLane="0" dir="R" state="M"/>
    <connection from=":1_2" to="3" fromLane="0" toLane="1" dir="R" state="M"/>
    <connection from=":1_3" to="11" fromLane="0" toLane="0" dir="s" state="M"/>
    <connection from=":1_3" to="11" fromLane="1" toLane="1" dir="s" state="M"/>
    <connection from=":2_0" to="5" fromLane="0" toLane="0" dir="r" state="M"/>
    <connection from=":2_1" to="12" fromLane="0" toLane="0" dir="s" state="M"/>
    <connection from=":2_1" to="12" fromLane="1" toLane="1" dir="s" state="M"/>
    <connection from=":2_3" to="5" fromLane="0" toLane="0" dir="s" state="M"/>
    <connection from=":2_3" to="5" fromLane="1" toLane="1" dir="s" state="M"/>
    <connection from=":2_5" to="12" fromLane="0" toLane="1" via=":2_6_0" dir="L" state="m"/>
    <connection from=":2_6" to="12" fromLane="0" toLane="1" dir="L" state="M"/>
    <connection from=":3_0" to="7" fromLane="0" toLane="0" dir="r" state="M"/>
    <connection from=":3_0" to="7" fromLane="1" toLane="1" dir="r" state="M"/>
    <connection from=":3_2" to="7" fromLane="0" toLane="0" dir="s" state="M"/>
    <connection from=":3_2" to="7" fromLane="1" toLane="1" dir="s" state="M"/>
    <connection from=":3_4" to="7" fromLane="0" toLane="0" via=":3_6_0" dir="l" state="m"/>
    <connection from=":3_6" to="7" fromLane="0" toLane="0" dir="l" state="M"/>
    <connection from=":3_4" to="7" fromLane="1" toLane="1" via=":3_7_0" dir="l" state="m"/>
    <connection from=":3_7" to="7" fromLane="0" toLane="1" dir="l" state="M"/>
    <connection from=":5_0" to="14" fromLane="0" toLane="0" dir="r" state="M"/>
    <connection from=":5_0" to="14" fromLane="1" toLane="1" dir="r" state="M"/>
    <connection from=":6_0" to="4" fromLane="0" toLane="0" dir="l" state="M"/>
    <connection from=":6_0" to="4" fromLane="1" toLane="1" dir="l" state="M"/>
    <connection from=":7_0" to="13" fromLane="0" toLane="0" dir="s" state="M"/>
    <connection from=":7_0" to="13" fromLane="1" toLane="1" dir="s" state="M"/>
    <connection from=":7_2" to="6" fromLane="0" toLane="0" dir="l" state="M"/>
    <connection from=":7_2" to="6" fromLane="1" toLane="1" dir="l" state="M"/>
    <connection from=":8_0" to="8" fromLane="0" toLane="0" dir="l" state="M"/>
    <connection from=":8_0" to="8" fromLane="1" toLane="1" dir="l" state="M"/>
    <connection from=":8_2" to="8" fromLane="0" toLane="0" via=":8_4_0" dir="l" state="m"/>
    <connection from=":8_4" to="8" fromLane="0" toLane="0" dir="l" state="M"/>
    <connection from=":8_2" to="8" fromLane="1" toLane="1" via=":8_5_0" dir="l" state="m"/>
    <connection from=":8_5" to="8" fromLane="0" toLane="1" dir="l" state="M"/>
    <connection from=":9_0" to="2" fromLane="0" toLane="0" dir="l" state="M"/>
    <connection from=":9_0" to="2" fromLane="1" toLane="1" dir="l" state="M"/>

</net>
