<nodes><node id="V0001" x="125.72" y="488.394" type="priority" /><node id="V0002" x="829.0933333333334" y="276.89666666666665" type="priority" /><node id="V0003" x="283.21200000000005" y="301.86466666666666" type="priority" /><node id="V0004" x="315.4066666666667" y="974.9" type="priority" /><node id="V0005" x="616.4253333333332" y="786.0933333333334" type="priority" /><node id="V0006" x="1026.0733333333333" y="233.47066666666666" type="priority" /><node id="V0007" x="601.8413333333334" y="265.50266666666664" type="priority" /><node id="V0008" x="400.468" y="6.543166666666666" type="priority" /><node id="V0009" x="1034.5666666666666" y="994.4" type="priority" /><node id="V0010" x="930.4666666666667" y="607.2453333333334" type="priority" /><node id="V0011" x="364.44733333333335" y="416.61133333333333" type="priority" /><node id="V0012" x="610.482" y="573.9486666666667" type="priority" /><node id="V0013" x="709.1266666666667" y="564.1373333333333" type="priority" /><node id="V0014" x="651.2493333333333" y="267.97999999999996" type="priority" /><node id="V0015" x="624.5206666666667" y="790.1266666666667" type="priority" /><node id="V0016" x="504.722" y="506.03266666666667" type="priority" /><node id="V0017" x="604.056" y="344.56333333333333" type="priority" /><node id="V0018" x="375.2713333333333" y="293.38866666666667" type="priority" /><node id="V0019" x="597.518" y="591.564" type="priority" /><node id="V0020" x="613.016" y="664.4073333333333" type="priority" /><node id="V0021" x="669.8333333333334" y="658.2173333333334" type="priority" /><node id="V0022" x="738.8199999999999" y="721.8" type="priority" /><node id="V0023" x="397.064" y="406.80333333333334" type="priority" /><node id="V0024" x="598.8946666666667" y="272.8" type="priority" /><node id="V0025" x="602.0373333333333" y="272.5106666666667" type="priority" /><node id="V0026" x="367.68733333333336" y="379.72666666666663" type="priority" /><node id="V0027" x="611.332" y="604.2966666666667" type="priority" /><node id="V0028" x="642.8173333333333" y="633.3166666666667" type="priority" /><node id="V0029" x="565.2013333333333" y="356.246" type="priority" /></nodes>