<?xml version="1.0" encoding="UTF-8"?>

<!-- generated on 2023-06-26 02:05:24 by Eclipse SUMO netconvert Version 1.16.0
<configuration xmlns:xsi="http://www.w3.org/2001/XMLSchema-instance" xsi:noNamespaceSchemaLocation="http://sumo.dlr.de/xsd/netconvertConfiguration.xsd">

    <input>
        <node-files value="data/simulationConfigurations/tests/14\14.nod.xml"/>
        <edge-files value="data/simulationConfigurations/tests/14\14.edg.xml"/>
    </input>

    <output>
        <output-file value="data/simulationConfigurations/tests/14\14.net.xml"/>
    </output>

</configuration>
-->

<net version="1.16" junctionCornerDetail="5" limitTurnSpeed="5.50" xmlns:xsi="http://www.w3.org/2001/XMLSchema-instance" xsi:noNamespaceSchemaLocation="http://sumo.dlr.de/xsd/net_file.xsd">

    <location netOffset="-125.72,-6.54" convBoundary="0.00,0.00,908.85,987.86" origBoundary="125.72,6.54,1034.57,994.40" projParameter="!"/>

    <edge id=":V0001_0" function="internal">
        <lane id=":V0001_0_0" index="0" speed="11.80" length="19.90" shape="-6.00,488.48 -6.15,485.62 -4.76,481.78 -1.81,476.99 2.69,471.22"/>
        <lane id=":V0001_0_1" index="1" speed="10.80" length="16.57" shape="-3.02,487.32 -2.95,485.32 -1.56,482.32 1.13,478.30 5.14,473.28"/>
    </edge>
    <edge id=":V0001_2" function="internal">
        <lane id=":V0001_2_0" index="0" speed="7.52" length="13.17" shape="-0.04,486.16 -0.31,483.63 0.95,481.39 3.74,479.43 8.07,477.75"/>
    </edge>
    <edge id=":V0002_0" function="internal">
        <lane id=":V0002_0_0" index="0" speed="7.80" length="26.03" shape="698.56,263.45 689.79,266.62 687.03,269.07 690.29,270.78 699.57,271.77"/>
    </edge>
    <edge id=":V0002_1" function="internal">
        <lane id=":V0002_1_0" index="0" speed="8.42" length="24.14" shape="698.95,266.67 702.53,267.46 702.92,272.14 701.11,279.20 698.09,287.14"/>
    </edge>
    <edge id=":V0002_2" function="internal">
        <lane id=":V0002_2_0" index="0" speed="7.27" length="19.69" shape="699.35,269.89 702.20,270.40 701.44,274.06 698.43,279.43 694.50,285.11"/>
    </edge>
    <edge id=":V0003_0" function="internal">
        <lane id=":V0003_0_0" index="0" speed="8.39" length="24.49" shape="155.32,304.20 152.92,299.53 155.92,296.08 162.31,293.78 170.09,292.55"/>
    </edge>
    <edge id=":V0003_1" function="internal">
        <lane id=":V0003_1_0" index="0" speed="5.73" length="9.19" shape="165.95,287.02 165.30,289.67 165.77,291.47 167.37,292.44 170.09,292.55"/>
    </edge>
    <edge id=":V0003_2" function="internal">
        <lane id=":V0003_2_0" index="0" speed="17.26" length="22.40" shape="145.04,302.62 150.98,297.89 158.12,294.90 164.99,293.25"/>
    </edge>
    <edge id=":V0003_3" function="internal">
        <lane id=":V0003_3_0" index="0" speed="17.26" length="5.15" shape="164.99,293.25 170.09,292.55"/>
    </edge>
    <edge id=":V0004_0" function="internal">
        <lane id=":V0004_0_0" index="0" speed="6.64" length="19.83" shape="211.03,947.45 215.28,941.41 216.37,939.13 214.30,940.59 209.08,945.81"/>
    </edge>
    <edge id=":V0004_1" function="internal">
        <lane id=":V0004_1_0" index="0" speed="5.99" length="14.18" shape="211.03,947.45 209.33,949.64 206.24,953.62 203.43,957.36 202.55,958.81"/>
    </edge>
    <edge id=":V0004_2" function="internal">
        <lane id=":V0004_2_0" index="0" speed="7.78" length="19.53" shape="211.03,947.45 206.07,954.62 203.23,959.75 202.50,962.86 203.89,963.94"/>
        <lane id=":V0004_2_1" index="1" speed="9.03" length="26.86" shape="208.58,945.39 202.36,954.79 199.49,961.55 199.97,965.67 203.80,967.14"/>
    </edge>
    <edge id=":V0004_4" function="internal">
        <lane id=":V0004_4_0" index="0" speed="10.49" length="35.98" shape="208.58,945.39 201.96,951.75 192.36,958.27 183.26,962.20 178.16,960.81"/>
    </edge>
    <edge id=":V0004_5" function="internal">
        <lane id=":V0004_5_0" index="0" speed="7.98" length="25.16" shape="208.58,945.39 203.04,949.71 196.88,950.35 192.04,947.51 190.45,941.39"/>
    </edge>
    <edge id=":V0004_6" function="internal">
        <lane id=":V0004_6_0" index="0" speed="5.83" length="13.42" shape="204.85,943.62 203.39,948.03 203.61,949.87 205.50,949.13 209.08,945.81"/>
    </edge>
    <edge id=":V0004_7" function="internal">
        <lane id=":V0004_7_0" index="0" speed="6.95" length="17.83" shape="204.85,943.62 201.95,951.39 200.60,956.52 200.80,958.99 202.55,958.81"/>
    </edge>
    <edge id=":V0004_8" function="internal">
        <lane id=":V0004_8_0" index="0" speed="8.90" length="22.64" shape="204.85,943.62 201.74,952.44 200.55,958.76 201.26,962.60 203.89,963.94"/>
        <lane id=":V0004_8_1" index="1" speed="9.88" length="28.21" shape="201.60,943.11 198.15,953.51 197.37,960.97 199.25,965.52 203.80,967.14"/>
    </edge>
    <edge id=":V0004_10" function="internal">
        <lane id=":V0004_10_0" index="0" speed="9.01" length="29.69" shape="201.60,943.11 197.47,950.28 191.34,957.50 185.22,961.66 181.14,959.65"/>
        <lane id=":V0004_10_1" index="1" speed="9.10" length="30.28" shape="201.60,943.11 197.48,952.24 192.78,959.74 188.12,962.77 184.12,958.49"/>
    </edge>
    <edge id=":V0004_12" function="internal">
        <lane id=":V0004_12_0" index="0" speed="6.28" length="16.48" shape="201.60,943.11 198.17,946.87 195.16,947.83 192.59,946.00 190.45,941.39"/>
    </edge>
    <edge id=":V0005_0" function="internal">
        <lane id=":V0005_0_0" index="0" speed="9.35" length="12.36" shape="490.29,784.71 486.98,782.74 484.59,780.59 483.13,778.27 482.60,775.78"/>
        <lane id=":V0005_0_1" index="1" speed="8.02" length="8.91" shape="491.72,781.84 489.16,780.37 487.32,778.85 486.20,777.29 485.80,775.69"/>
    </edge>
    <edge id=":V0005_2" function="internal">
        <lane id=":V0005_2_0" index="0" speed="6.20" length="5.43" shape="496.68,777.71 494.00,780.65 492.56,780.84"/>
        <lane id=":V0005_2_1" index="1" speed="5.67" length="4.00" shape="493.72,776.48 491.93,780.06"/>
    </edge>
    <edge id=":V0005_4" function="internal">
        <lane id=":V0005_4_0" index="0" speed="6.20" length="9.77" shape="492.56,780.84 490.41,781.13 487.23,779.39 485.80,775.69"/>
    </edge>
    <edge id=":V0005_5" function="internal">
        <lane id=":V0005_5_0" index="0" speed="5.67" length="8.41" shape="491.93,780.06 491.77,780.38 490.34,781.53 489.41,779.94 488.99,775.60"/>
    </edge>
    <edge id=":V0007_0" function="internal">
        <lane id=":V0007_0_0" index="0" speed="4.56" length="7.36" shape="474.43,255.65 476.31,262.76"/>
    </edge>
    <edge id=":V0007_1" function="internal">
        <lane id=":V0007_1_0" index="0" speed="7.29" length="2.34" shape="474.43,255.65 476.76,255.86"/>
    </edge>
    <edge id=":V0007_8" function="internal">
        <lane id=":V0007_8_0" index="0" speed="7.29" length="8.83" shape="476.76,255.86 485.55,256.64"/>
    </edge>
    <edge id=":V0007_2" function="internal">
        <lane id=":V0007_2_0" index="0" speed="5.56" length="4.71" shape="486.34,267.48 482.25,265.16"/>
        <lane id=":V0007_2_1" index="1" speed="6.59" length="6.93" shape="486.11,264.27 484.67,264.07 482.46,263.75 480.36,263.61 479.28,263.96"/>
        <lane id=":V0007_2_2" index="2" speed="7.81" length="10.04" shape="485.87,261.05 482.02,260.99 479.14,261.26 477.23,261.85 476.31,262.76"/>
    </edge>
    <edge id=":V0007_5" function="internal">
        <lane id=":V0007_5_0" index="0" speed="4.16" length="6.45" shape="485.87,261.05 484.14,260.07 483.51,259.01 483.98,257.86 485.55,256.64"/>
    </edge>
    <edge id=":V0007_6" function="internal">
        <lane id=":V0007_6_0" index="0" speed="10.74" length="14.59" shape="471.52,250.43 473.50,252.06 476.46,253.11 480.40,253.57 485.32,253.45"/>
    </edge>
    <edge id=":V0007_7" function="internal">
        <lane id=":V0007_7_0" index="0" speed="10.75" length="15.82" shape="471.52,250.43 475.27,255.48 477.81,259.41 479.15,262.24 479.28,263.96"/>
    </edge>
    <edge id=":V0008_0" function="internal">
        <lane id=":V0008_0_0" index="0" speed="9.72" length="42.45" shape="266.53,2.12 265.91,17.50 267.62,23.08 271.64,18.86 277.99,4.84"/>
        <lane id=":V0008_0_1" index="1" speed="6.71" length="19.14" shape="269.68,2.87 269.40,9.80 270.17,12.31 271.98,10.41 274.85,4.09"/>
    </edge>
    <edge id=":V0008_2" function="internal">
        <lane id=":V0008_2_0" index="0" speed="5.43" length="9.72" shape="272.82,3.61 273.43,0.59 274.58,-0.65 276.26,-0.12 278.47,2.18"/>
    </edge>
    <edge id=":V0009_0" function="internal">
        <lane id=":V0009_0_0" index="0" speed="9.50" length="48.98" shape="912.60,983.33 907.25,966.26 903.50,960.84 901.35,967.07 900.81,984.96"/>
    </edge>
    <edge id=":V0009_1" function="internal">
        <lane id=":V0009_1_0" index="0" speed="10.76" length="41.17" shape="912.60,983.33 910.86,988.44 902.74,987.97 890.69,983.72 877.21,977.46"/>
        <lane id=":V0009_1_1" index="1" speed="9.82" length="34.03" shape="909.41,983.77 907.51,985.95 900.61,984.39 890.40,980.22 878.64,974.59"/>
    </edge>
    <edge id=":V0009_3" function="internal">
        <lane id=":V0009_3_0" index="0" speed="8.36" length="27.60" shape="909.41,983.77 908.40,986.29 903.47,983.81 896.31,978.22 888.61,971.38"/>
    </edge>
    <edge id=":V0009_4" function="internal">
        <lane id=":V0009_4_0" index="0" speed="5.65" length="12.24" shape="876.03,982.17 880.32,981.99 881.95,981.14 880.91,979.63 877.21,977.46"/>
    </edge>
    <edge id=":V0009_5" function="internal">
        <lane id=":V0009_5_0" index="0" speed="7.55" length="20.65" shape="876.03,982.17 884.24,981.84 888.71,980.33 889.44,977.63 886.44,973.73"/>
        <lane id=":V0009_5_1" index="1" speed="9.09" length="30.78" shape="875.95,985.36 887.49,984.78 893.45,982.26 893.82,977.79 888.61,971.38"/>
    </edge>
    <edge id=":V0009_7" function="internal">
        <lane id=":V0009_7_0" index="0" speed="10.93" length="28.20" shape="875.95,985.36 888.23,985.60 897.00,985.53 902.26,985.17 904.01,984.52"/>
        <lane id=":V0009_7_1" index="1" speed="11.53" length="31.47" shape="875.95,985.36 889.63,985.60 899.40,985.47 905.26,984.96 907.20,984.08"/>
    </edge>
    <edge id=":V0010_0" function="internal">
        <lane id=":V0010_0_0" index="0" speed="7.60" length="15.36" shape="798.85,598.63 802.90,596.94 806.18,597.15 808.69,599.28 810.42,603.32"/>
        <lane id=":V0010_0_1" index="1" speed="5.99" length="9.08" shape="800.49,601.38 802.89,600.38 804.83,600.50 806.31,601.76 807.33,604.15"/>
    </edge>
    <edge id=":V0011_0" function="internal">
        <lane id=":V0011_0_0" index="0" speed="9.83" length="15.57" shape="230.29,410.93 231.96,409.63 233.31,406.82 234.35,402.49 235.09,396.65"/>
    </edge>
    <edge id=":V0011_1" function="internal">
        <lane id=":V0011_1_0" index="0" speed="25.00" length="15.54" shape="230.29,410.93 233.16,409.03 235.38,406.06 238.16,402.93 242.69,400.52"/>
        <lane id=":V0011_1_1" index="1" speed="25.00" length="15.54" shape="230.29,410.93 233.37,409.49 236.02,407.54 239.13,405.46 243.61,403.59"/>
        <lane id=":V0011_1_2" index="2" speed="25.00" length="15.54" shape="230.29,410.93 244.53,406.65"/>
    </edge>
    <edge id=":V0011_4" function="internal">
        <lane id=":V0011_4_0" index="0" speed="16.50" length="17.21" shape="236.78,413.90 236.60,410.32 235.82,406.65 235.09,402.29 235.09,396.65"/>
        <lane id=":V0011_4_1" index="1" speed="16.50" length="17.21" shape="236.78,413.90 238.28,396.93"/>
    </edge>
    <edge id=":V0011_6" function="internal">
        <lane id=":V0011_6_0" index="0" speed="9.08" length="13.17" shape="236.78,413.90 237.49,410.07 238.86,407.08 240.90,404.92 243.61,403.59"/>
        <lane id=":V0011_6_1" index="1" speed="8.43" length="11.27" shape="236.78,413.90 237.44,411.55 238.94,409.56 241.31,407.93 244.53,406.65"/>
    </edge>
    <edge id=":V0012_0" function="internal">
        <lane id=":V0012_0_0" index="0" speed="5.21" length="9.18" shape="483.83,591.15 483.47,587.71 482.65,586.02 481.35,586.09 479.59,587.93"/>
    </edge>
    <edge id=":V0012_1" function="internal">
        <lane id=":V0012_1_0" index="0" speed="13.00" length="28.07" shape="483.83,591.15 482.70,586.74 480.34,580.85 477.92,573.23 476.65,563.63"/>
        <lane id=":V0012_1_1" index="1" speed="13.00" length="28.07" shape="483.83,591.15 483.20,586.69 481.93,580.70 480.62,573.03 479.85,563.54"/>
        <lane id=":V0012_1_2" index="2" speed="13.00" length="28.07" shape="483.83,591.15 483.05,563.45"/>
    </edge>
    <edge id=":V0012_4" function="internal">
        <lane id=":V0012_4_0" index="0" speed="17.00" length="23.72" shape="488.42,565.13 486.38,568.75 484.25,573.50 481.36,579.29 477.02,586.03"/>
        <lane id=":V0012_4_1" index="1" speed="17.00" length="23.72" shape="488.42,565.13 474.44,584.13"/>
    </edge>
    <edge id=":V0012_6" function="internal">
        <lane id=":V0012_6_0" index="0" speed="6.59" length="4.48" shape="488.42,565.13 485.45,568.49"/>
        <lane id=":V0012_6_1" index="1" speed="5.46" length="4.15" shape="488.42,565.13 486.16,567.64 485.43,567.89"/>
    </edge>
    <edge id=":V0012_8" function="internal">
        <lane id=":V0012_8_0" index="0" speed="6.59" length="11.26" shape="485.45,568.49 484.81,569.22 482.17,570.31 480.52,568.42 479.85,563.54"/>
    </edge>
    <edge id=":V0012_9" function="internal">
        <lane id=":V0012_9_0" index="0" speed="5.46" length="6.08" shape="485.43,567.89 484.51,568.20 483.48,566.80 483.05,563.45"/>
    </edge>
    <edge id=":V0013_0" function="internal">
        <lane id=":V0013_0_0" index="0" speed="5.81" length="13.42" shape="596.46,530.48 594.89,535.00 595.00,536.92 596.81,536.26 600.32,533.01"/>
    </edge>
    <edge id=":V0013_1" function="internal">
        <lane id=":V0013_1_0" index="0" speed="16.50" length="34.05" shape="596.46,530.48 583.34,561.90"/>
    </edge>
    <edge id=":V0013_2" function="internal">
        <lane id=":V0013_2_0" index="0" speed="14.50" length="33.45" shape="579.48,559.37 602.63,535.23"/>
    </edge>
    <edge id=":V0013_3" function="internal">
        <lane id=":V0013_3_0" index="0" speed="5.81" length="4.88" shape="579.48,559.37 582.99,556.13 583.08,556.09"/>
    </edge>
    <edge id=":V0013_4" function="internal">
        <lane id=":V0013_4_0" index="0" speed="5.81" length="8.54" shape="583.08,556.09 584.80,555.46 584.92,557.39 583.34,561.90"/>
    </edge>
    <edge id=":V0014_0" function="internal">
        <lane id=":V0014_0_0" index="0" speed="15.50" length="10.23" shape="529.88,263.26 527.08,264.12 525.37,266.23 523.55,268.35 520.43,269.19"/>
        <lane id=":V0014_0_1" index="1" speed="15.50" length="10.23" shape="529.88,263.26 527.07,263.62 525.24,264.63 523.40,265.64 520.59,266.00"/>
        <lane id=":V0014_0_2" index="2" speed="15.50" length="10.23" shape="529.88,263.26 520.75,262.80"/>
    </edge>
    <edge id=":V0014_3" function="internal">
        <lane id=":V0014_3_0" index="0" speed="20.50" length="9.02" shape="521.05,257.03 523.61,257.30 525.29,258.25 526.97,259.20 529.53,259.46"/>
    </edge>
    <edge id=":V0014_4" function="internal">
        <lane id=":V0014_4_0" index="0" speed="3.99" length="5.74" shape="520.88,260.26 520.59,266.00"/>
        <lane id=":V0014_4_1" index="1" speed="6.38" length="18.09" shape="520.88,260.26 514.15,261.04 511.89,261.72 514.09,262.31 520.75,262.80"/>
    </edge>
    <edge id=":V0015_0" function="internal">
        <lane id=":V0015_0_0" index="0" speed="19.00" length="10.92" shape="500.24,789.66 490.47,784.80"/>
        <lane id=":V0015_0_1" index="1" speed="19.00" length="10.92" shape="501.67,786.80 491.90,781.93"/>
    </edge>
    <edge id=":V0015_2" function="internal">
        <lane id=":V0015_2_0" index="0" speed="6.57" length="13.26" shape="501.67,786.80 497.95,784.42 496.39,782.06 497.00,779.72 499.77,777.41"/>
        <lane id=":V0015_2_1" index="1" speed="5.62" length="9.29" shape="501.67,786.80 499.33,785.23 498.50,783.59 499.20,781.91 501.41,780.16"/>
    </edge>
    <edge id=":V0015_4" function="internal">
        <lane id=":V0015_4_0" index="0" speed="4.92" length="6.77" shape="486.26,789.21 488.75,787.61 490.29,786.33 490.86,785.40 490.47,784.80"/>
    </edge>
    <edge id=":V0015_5" function="internal">
        <lane id=":V0015_5_0" index="0" speed="17.50" length="18.22" shape="486.26,789.21 488.79,786.54 490.78,782.78 493.48,778.61 498.13,774.66"/>
        <lane id=":V0015_5_1" index="1" speed="17.50" length="18.22" shape="486.26,789.21 489.10,786.93 491.74,784.08 495.02,780.84 499.77,777.41"/>
        <lane id=":V0015_5_2" index="2" speed="17.50" length="18.22" shape="486.26,789.21 501.41,780.16"/>
    </edge>
    <edge id=":V0016_0" function="internal">
        <lane id=":V0016_0_0" index="0" speed="6.26" length="10.57" shape="386.24,512.68 383.71,510.94 381.51,510.66 379.65,511.85 378.11,514.51"/>
    </edge>
    <edge id=":V0016_1" function="internal">
        <lane id=":V0016_1_0" index="0" speed="11.50" length="18.51" shape="386.24,512.68 381.88,509.35 378.44,507.67 374.99,505.99 370.64,502.66"/>
        <lane id=":V0016_1_1" index="1" speed="11.50" length="18.51" shape="388.40,510.33 384.05,507.00 380.61,505.32 377.16,503.64 372.81,500.31"/>
        <lane id=":V0016_1_2" index="2" speed="11.50" length="18.51" shape="388.40,510.33 374.98,497.96"/>
    </edge>
    <edge id=":V0016_4" function="internal">
        <lane id=":V0016_4_0" index="0" speed="10.00" length="19.16" shape="387.92,498.78 385.41,503.65 383.02,506.64 380.62,509.63 378.11,514.51"/>
        <lane id=":V0016_4_1" index="1" speed="10.00" length="19.16" shape="387.92,498.78 384.90,503.57 381.53,506.04 378.16,508.52 375.15,513.31"/>
    </edge>
    <edge id=":V0016_6" function="internal">
        <lane id=":V0016_6_0" index="0" speed="7.51" length="15.80" shape="384.95,497.58 382.66,501.55 379.87,503.33 376.58,502.92 372.81,500.31"/>
        <lane id=":V0016_6_1" index="1" speed="5.87" length="9.12" shape="381.98,496.38 380.66,498.67 379.05,499.70 377.16,499.46 374.98,497.96"/>
    </edge>
    <edge id=":V0017_0" function="internal">
        <lane id=":V0017_0_0" index="0" speed="11.50" length="19.94" shape="470.50,343.90 471.32,337.50 473.38,332.66 475.47,328.73 476.37,325.06"/>
    </edge>
    <edge id=":V0017_1" function="internal">
        <lane id=":V0017_1_0" index="0" speed="7.50" length="16.09" shape="473.70,343.81 474.14,339.56 475.73,336.14 478.48,333.55 482.37,331.79"/>
        <lane id=":V0017_1_1" index="1" speed="7.50" length="11.87" shape="476.90,343.72 477.22,340.59 478.40,338.07 480.42,336.16 483.29,334.86"/>
    </edge>
    <edge id=":V0017_3" function="internal">
        <lane id=":V0017_3_0" index="0" speed="9.56" length="16.52" shape="463.58,334.10 469.23,332.08 473.25,329.90 475.63,327.56 476.37,325.06"/>
    </edge>
    <edge id=":V0017_4" function="internal">
        <lane id=":V0017_4_0" index="0" speed="9.50" length="18.91" shape="464.50,337.17 469.70,335.08 472.97,332.95 476.25,330.82 481.45,328.73"/>
        <lane id=":V0017_4_1" index="1" speed="9.50" length="18.91" shape="465.42,340.23 470.62,338.15 473.90,336.01 477.17,333.88 482.37,331.79"/>
        <lane id=":V0017_4_2" index="2" speed="9.50" length="18.91" shape="465.42,340.23 483.29,334.86"/>
    </edge>
    <edge id=":V0018_0" function="internal">
        <lane id=":V0018_0_0" index="0" speed="8.03" length="12.34" shape="236.94,286.40 239.03,285.61 240.64,283.67 241.78,280.58 242.44,276.34"/>
    </edge>
    <edge id=":V0018_1" function="internal">
        <lane id=":V0018_1_0" index="0" speed="21.00" length="17.20" shape="236.94,286.40 240.43,285.58 243.90,284.15 248.05,282.67 253.59,281.65"/>
        <lane id=":V0018_1_1" index="1" speed="21.00" length="17.20" shape="236.94,286.40 253.89,284.84"/>
    </edge>
    <edge id=":V0018_3" function="internal">
        <lane id=":V0018_3_0" index="0" speed="20.50" length="13.99" shape="247.61,290.61 247.40,287.31 246.56,284.39 245.74,281.07 245.63,276.62"/>
        <lane id=":V0018_3_1" index="1" speed="20.50" length="13.99" shape="247.61,290.61 248.82,276.90"/>
    </edge>
    <edge id=":V0018_5" function="internal">
        <lane id=":V0018_5_0" index="0" speed="7.07" length="9.38" shape="247.61,290.61 248.18,288.29 249.41,286.55 251.31,285.40 253.89,284.84"/>
    </edge>
    <edge id=":V0019_0" function="internal">
        <lane id=":V0019_0_0" index="0" speed="6.75" length="10.63" shape="478.17,593.07 476.21,591.96 474.11,592.13 471.86,593.57 469.48,596.27"/>
    </edge>
    <edge id=":V0019_1" function="internal">
        <lane id=":V0019_1_0" index="0" speed="16.50" length="14.36" shape="478.17,593.07 475.40,591.20 472.50,590.02 469.30,588.56 465.60,585.84"/>
        <lane id=":V0019_1_1" index="1" speed="16.50" length="14.36" shape="478.17,593.07 467.77,583.49"/>
    </edge>
    <edge id=":V0019_3" function="internal">
        <lane id=":V0019_3_0" index="0" speed="15.50" length="13.05" shape="479.47,588.09 476.84,590.83 474.48,592.18 472.12,593.53 469.48,596.27"/>
        <lane id=":V0019_3_1" index="1" speed="15.50" length="13.05" shape="476.90,586.19 474.26,588.93 471.90,590.28 469.54,591.63 466.90,594.38"/>
    </edge>
    <edge id=":V0019_5" function="internal">
        <lane id=":V0019_5_0" index="0" speed="5.82" length="7.61" shape="474.32,584.29 473.05,585.41 471.54,585.65 469.78,585.01 467.77,583.49"/>
    </edge>
    <edge id=":V0020_0" function="internal">
        <lane id=":V0020_0_0" index="0" speed="16.00" length="22.57" shape="479.61,669.23 479.93,662.71 480.91,658.28 481.88,653.86 482.20,647.34"/>
        <lane id=":V0020_0_1" index="1" speed="16.00" length="22.57" shape="479.61,669.23 480.43,662.60 482.50,658.24 484.58,653.88 485.40,647.25"/>
    </edge>
    <edge id=":V0020_2" function="internal">
        <lane id=":V0020_2_0" index="0" speed="15.23" length="21.94" shape="482.81,669.14 483.08,662.94 484.26,657.47 486.35,652.76 489.36,648.78"/>
        <lane id=":V0020_2_1" index="1" speed="14.34" length="19.41" shape="486.01,669.05 486.24,663.49 487.26,658.63 489.07,654.46 491.67,650.99"/>
    </edge>
    <edge id=":V0020_4" function="internal">
        <lane id=":V0020_4_0" index="0" speed="12.00" length="20.89" shape="475.65,667.70 477.29,664.94 478.39,660.65 478.96,654.81 479.00,647.43"/>
    </edge>
    <edge id=":V0020_5" function="internal">
        <lane id=":V0020_5_0" index="0" speed="17.50" length="23.27" shape="475.65,667.70 478.28,664.24 481.21,659.59 484.78,654.27 489.36,648.78"/>
        <lane id=":V0020_5_1" index="1" speed="17.50" length="23.27" shape="475.65,667.70 491.67,650.99"/>
    </edge>
    <edge id=":V0021_0" function="internal">
        <lane id=":V0021_0_0" index="0" speed="5.88" length="9.11" shape="550.52,664.11 548.35,662.61 546.45,662.36 544.83,663.38 543.48,665.65"/>
    </edge>
    <edge id=":V0021_1" function="internal">
        <lane id=":V0021_1_0" index="0" speed="14.00" length="17.14" shape="550.52,664.11 537.92,652.49"/>
        <lane id=":V0021_1_1" index="1" speed="14.00" length="17.14" shape="552.69,661.76 540.09,650.14"/>
    </edge>
    <edge id=":V0021_3" function="internal">
        <lane id=":V0021_3_0" index="0" speed="18.50" length="17.14" shape="547.13,648.60 540.53,664.42"/>
    </edge>
    <edge id=":V0021_4" function="internal">
        <lane id=":V0021_4_0" index="0" speed="5.88" length="9.11" shape="547.13,648.60 545.78,650.87 544.16,651.88 542.26,651.64 540.09,650.14"/>
    </edge>
    <edge id=":V0022_0" function="internal">
        <lane id=":V0022_0_0" index="0" speed="15.50" length="19.90" shape="612.79,721.50 598.15,708.01"/>
        <lane id=":V0022_0_1" index="1" speed="15.50" length="19.90" shape="614.96,719.14 600.32,705.66"/>
    </edge>
    <edge id=":V0022_2" function="internal">
        <lane id=":V0022_2_0" index="0" speed="6.85" length="12.33" shape="614.96,719.14 612.29,716.11 611.25,713.42 611.84,711.08 614.07,709.08"/>
        <lane id=":V0022_2_1" index="1" speed="5.97" length="9.08" shape="614.96,719.14 613.31,717.13 612.89,715.23 613.69,713.47 615.71,711.83"/>
    </edge>
    <edge id=":V0022_4" function="internal">
        <lane id=":V0022_4_0" index="0" speed="5.97" length="9.08" shape="597.40,715.32 599.42,713.68 600.22,711.92 599.80,710.03 598.15,708.01"/>
    </edge>
    <edge id=":V0022_5" function="internal">
        <lane id=":V0022_5_0" index="0" speed="21.00" length="17.51" shape="597.40,715.32 612.43,706.34"/>
        <lane id=":V0022_5_1" index="1" speed="21.00" length="17.51" shape="599.04,718.07 614.07,709.08"/>
        <lane id=":V0022_5_2" index="2" speed="21.00" length="17.51" shape="600.68,720.82 615.71,711.83"/>
    </edge>
    <edge id=":V0023_0" function="internal">
        <lane id=":V0023_0_0" index="0" speed="8.50" length="24.83" shape="268.86,408.85 250.61,392.03"/>
        <lane id=":V0023_0_1" index="1" speed="8.50" length="24.83" shape="271.03,406.50 252.77,389.67"/>
        <lane id=":V0023_0_2" index="2" speed="8.50" length="24.83" shape="273.20,404.15 254.94,387.32"/>
    </edge>
    <edge id=":V0023_3" function="internal">
        <lane id=":V0023_3_0" index="0" speed="5.66" length="9.25" shape="273.20,404.15 271.42,402.01 271.08,400.20 272.18,398.72 274.71,397.58"/>
    </edge>
    <edge id=":V0023_4" function="internal">
        <lane id=":V0023_4_0" index="0" speed="5.66" length="9.25" shape="249.09,398.60 251.63,397.45 252.73,395.97 252.39,394.17 250.61,392.03"/>
        <lane id=":V0023_4_1" index="1" speed="7.40" length="16.88" shape="250.01,401.66 254.65,399.57 256.65,396.88 256.03,393.58 252.77,389.67"/>
    </edge>
    <edge id=":V0023_6" function="internal">
        <lane id=":V0023_6_0" index="0" speed="16.50" length="24.83" shape="250.94,404.73 274.71,397.58"/>
    </edge>
    <edge id=":V0024_0" function="internal">
        <lane id=":V0024_0_0" index="0" speed="6.12" length="10.73" shape="482.17,265.34 474.23,258.13"/>
        <lane id=":V0024_0_1" index="1" speed="4.61" length="5.47" shape="479.20,264.14 474.53,261.31"/>
    </edge>
    <edge id=":V0024_2" function="internal">
        <lane id=":V0024_2_0" index="0" speed="15.50" length="8.22" shape="476.24,262.95 473.16,270.56"/>
    </edge>
    <edge id=":V0024_3" function="internal">
        <lane id=":V0024_3_0" index="0" speed="17.00" length="5.80" shape="468.75,261.84 474.53,261.31"/>
        <lane id=":V0024_3_1" index="1" speed="17.00" length="5.80" shape="469.04,265.03 474.82,264.50"/>
    </edge>
    <edge id=":V0024_5" function="internal">
        <lane id=":V0024_5_0" index="0" speed="5.72" length="9.19" shape="469.04,265.03 471.78,265.15 473.37,266.11 473.83,267.92 473.16,270.56"/>
    </edge>
    <edge id=":V0025_0" function="internal">
        <lane id=":V0025_0_0" index="0" speed="11.00" length="14.13" shape="474.83,269.97 474.43,255.85"/>
    </edge>
    <edge id=":V0025_1" function="internal">
        <lane id=":V0025_1_0" index="0" speed="6.69" length="9.12" shape="474.83,269.97 475.11,267.55 476.12,265.75 477.86,264.56 480.31,263.99"/>
    </edge>
    <edge id=":V0025_2" function="internal">
        <lane id=":V0025_2_0" index="0" speed="3.96" length="2.56" shape="474.43,258.11 474.86,257.86 474.82,257.32 474.59,256.61 474.43,255.85"/>
    </edge>
    <edge id=":V0025_3" function="internal">
        <lane id=":V0025_3_0" index="0" speed="11.50" length="5.32" shape="474.72,261.29 480.02,260.81"/>
        <lane id=":V0025_3_1" index="1" speed="11.50" length="5.32" shape="475.02,264.48 480.31,263.99"/>
    </edge>
    <edge id=":V0026_0" function="internal">
        <lane id=":V0026_0_0" index="0" speed="13.00" length="15.52" shape="243.44,385.42 232.13,374.99"/>
        <lane id=":V0026_0_1" index="1" speed="13.00" length="15.52" shape="245.61,383.06 234.30,372.64"/>
        <lane id=":V0026_0_2" index="2" speed="13.00" length="15.52" shape="245.61,383.06 242.55,379.57 241.04,376.68 239.52,373.78 236.47,370.29"/>
    </edge>
    <edge id=":V0026_3" function="internal">
        <lane id=":V0026_3_0" index="0" speed="11.22" length="14.40" shape="247.77,380.71 244.53,377.37 242.29,374.25 241.03,371.33 240.76,368.63"/>
    </edge>
    <edge id=":V0026_4" function="internal">
        <lane id=":V0026_4_0" index="0" speed="10.62" length="12.85" shape="235.95,386.80 235.97,383.19 235.33,380.02 234.05,377.29 232.13,374.99"/>
    </edge>
    <edge id=":V0026_5" function="internal">
        <lane id=":V0026_5_0" index="0" speed="19.50" length="18.53" shape="239.14,387.08 240.76,368.63"/>
    </edge>
    <edge id=":V0027_0" function="internal">
        <lane id=":V0027_0_0" index="0" speed="12.00" length="19.87" shape="478.04,613.07 478.31,593.20"/>
    </edge>
    <edge id=":V0027_1" function="internal">
        <lane id=":V0027_1_0" index="0" speed="13.00" length="20.21" shape="481.24,612.98 481.55,606.31 482.50,601.08 483.48,596.81 483.88,592.99"/>
    </edge>
    <edge id=":V0027_2" function="internal">
        <lane id=":V0027_2_0" index="0" speed="13.00" length="20.72" shape="488.31,611.12 484.08,605.86 481.86,600.83 480.37,596.45 478.31,593.20"/>
    </edge>
    <edge id=":V0027_3" function="internal">
        <lane id=":V0027_3_0" index="0" speed="13.58" length="17.56" shape="490.48,608.77 487.70,605.60 485.67,601.91 484.40,597.71 483.88,592.99"/>
    </edge>
    <edge id=":V0028_0" function="internal">
        <lane id=":V0028_0_0" index="0" speed="12.50" length="14.89" shape="516.79,633.01 513.23,630.41 510.34,629.25 507.45,628.08 503.89,625.48"/>
        <lane id=":V0028_0_1" index="1" speed="12.50" length="14.89" shape="518.95,630.66 515.39,628.06 512.51,626.89 509.62,625.73 506.06,623.13"/>
        <lane id=":V0028_0_2" index="2" speed="12.50" length="14.89" shape="518.95,630.66 508.23,620.77"/>
    </edge>
    <edge id=":V0028_3" function="internal">
        <lane id=":V0028_3_0" index="0" speed="6.47" length="9.03" shape="518.95,630.66 517.39,628.74 516.82,626.78 517.26,624.80 518.71,622.78"/>
    </edge>
    <edge id=":V0028_4" function="internal">