<configuration><input><net-file value="14.net.xml" /><route-files value="14.rou.xml" /></input><time><begin value="0" /></time></configuration>