<configuration><input><net-file value="sim_20.net.xml" /><route-files value="sim_20.rou.xml" /></input><time><begin value="0" /></time></configuration>