<nodes><node id="V0001" x="123.604" y="957.42" type="priority" /><node id="V0002" x="932.0933333333334" y="610.696" type="priority" /><node id="V0003" x="269.572" y="232.33133333333333" type="priority" /><node id="V0005" x="832.12" y="364.334" type="priority" /><node id="V0007" x="867.8666666666667" y="873.66" type="priority" /><node id="V0008" x="493.30933333333337" y="273.4786666666667" type="priority" /><node id="V0009" x="263.452" y="773.2666666666667" type="priority" /><node id="V0010" x="118.03733333333334" y="514.9573333333333" type="priority" /><node id="V0011" x="520.0546666666667" y="787.4" type="priority" /><node id="V0012" x="510.998" y="370.20933333333335" type="priority" /><node id="V0013" x="482.3" y="438.1226666666667" type="priority" /><node id="V0014" x="267.462" y="418.806" type="priority" /><node id="V0015" x="608.3860000000001" y="525.2233333333334" type="priority" /><node id="V0016" x="763.2066666666667" y="597.5626666666667" type="priority" /><node id="V0017" x="334.60400000000004" y="618.5580000000001" type="priority" /><node id="V0018" x="685.6733333333334" y="581.7146666666666" type="priority" /><node id="V0019" x="635.6746666666667" y="737.8133333333334" type="priority" /><node id="V0020" x="372.856" y="461.20799999999997" type="priority" /><node id="V0021" x="590.0993333333333" y="415.384" type="priority" /><node id="V0022" x="421.98466666666667" y="319.37399999999997" type="priority" /><node id="V0023" x="532.2533333333333" y="486.44800000000004" type="priority" /><node id="V0024" x="437.514" y="394.7966666666667" type="priority" /><node id="V0025" x="265.57599999999996" y="585.5366666666666" type="priority" /><node id="V0026" x="637.3966666666668" y="504.36133333333333" type="priority" /><node id="V0028" x="546.8986666666666" y="390.71200000000005" type="priority" /><node id="V0029" x="631.2853333333334" y="575.3186666666667" type="priority" /><node id="V0030" x="692.1133333333333" y="592.034" type="priority" /><node id="V0031" x="765.1266666666667" y="591.0593333333333" type="priority" /><node id="V0032" x="734.2533333333333" y="695.5400000000001" type="priority" /><node id="V0033" x="635.462" y="762.48" type="priority" /><node id="V0034" x="582.3973333333332" y="760.6666666666666" type="priority" /><node id="V0035" x="334.31" y="375.79066666666665" type="priority" /><node id="V0036" x="389.7513333333334" y="498.648" type="priority" /><node id="V0039" x="685.4266666666666" y="469.82399999999996" type="priority" /><node id="V0040" x="521.89" y="429.772" type="priority" /><node id="V0041" x="461.75533333333334" y="342.08733333333333" type="priority" /><node id="V0042" x="587.7073333333334" y="540.0933333333334" type="priority" /><node id="V0043" x="384.4893333333333" y="343.5013333333334" type="priority" /><node id="V0044" x="577.3106666666666" y="408.0806666666667" type="priority" /><node id="V0045" x="560.984" y="421.5253333333333" type="priority" /><node id="V0046" x="546.6853333333333" y="565.3693333333334" type="priority" /><node id="V0047" x="741.4666666666667" y="671.1266666666667" type="priority" /><node id="V0048" x="784.2666666666667" y="526.2746666666667" type="priority" /><node id="V0049" x="704.6866666666666" y="795.6" type="priority" /><node id="V0050" x="751.9666666666667" y="687.9466666666667" type="priority" /><node id="V0051" x="608.3733333333333" y="749.5266666666666" type="priority" /><node id="V0052" x="452.3713333333333" y="637.4133333333334" type="priority" /><node id="V0053" x="368.6933333333333" y="544.436" type="priority" /><node id="V0054" x="266.1773333333333" y="532.3793333333333" type="priority" /><node id="V0055" x="623.1286666666667" y="574.3593333333333" type="priority" /><node id="V0056" x="582.8259999999999" y="416.91866666666664" type="priority" /><node id="V0057" x="577.6753333333332" y="734.84" type="priority" /><node id="V0058" x="412.752" y="549.6173333333334" type="priority" /><node id="V0059" x="473.9426666666667" y="685.2133333333334" type="priority" /><node id="V0060" x="551.7326666666667" y="565.9626666666667" type="priority" /><node id="V0061" x="547.368" y="569.1013333333334" type="priority" /><node id="73060f37-ebbc-47e9-94ba-a0ff4547842c_1" x="580.0" y="440.0" type="priority" /><node id="cdf5e18a-7c94-428c-b8e6-cf0048981a2d_1" x="200.0" y="460.0" type="priority" /><node id="6064e698-fbae-4ca4-847b-024ca190eb6c_1" x="720.0" y="600.0" type="priority" /><node id="d2fe7f73-f144-41d9-8d10-c68ca272e3c8_1" x="300.0" y="700.0" type="priority" /><node id="57194dba-a5cb-4d8f-b6ae-c7b4a7cfcd63_2" x="840.0" y="600.0" type="priority" /><node id="0fe2b036-980c-46d5-bb1b-657660db718f_1" x="720.0" y="120.0" type="priority" /><node id="39f8f5e4-c6df-4920-984c-a2580a1c2ae1_1" x="280" y="740" type="priority" /></nodes>