<configuration><input><net-file value="sim_22.net.xml" /><route-files value="sim_22.rou.xml" /></input><time><begin value="0" /></time></configuration>