<?xml version="1.0" encoding="UTF-8"?>

<!-- generated on 2023-06-06 23:41:59.311972 by randomTrips.py v1_16_0+0000-94ec4c6cd72
<configuration>
    <end value="100"/>
    <fringe-factor value="10"/>
    <net-file value="data/simulationConfigurations/tmp/sim_4\sim_4.net.xml"/>
    <period value="0.2 0.5"/>
    <output-trip-file value="data/simulationConfigurations/tmp/sim_4\sim_4.rou.xml"/>
    <prefix value="random_trip_"/>
</configuration>
-->

<routes xmlns:xsi="http://www.w3.org/2001/XMLSchema-instance" xsi:noNamespaceSchemaLocation="http://sumo.dlr.de/xsd/routes_file.xsd">
    <trip id="random_trip_0" depart="0.00" from="40" to="11"/>
    <trip id="random_trip_1" depart="0.20" from="17" to="2"/>
    <trip id="random_trip_2" depart="0.40" from="47" to="41"/>
    <trip id="random_trip_3" depart="0.60" from="56" to="16"/>
    <trip id="random_trip_4" depart="0.80" from="28" to="11"/>
    <trip id="random_trip_5" depart="1.00" from="17" to="35"/>
    <trip id="random_trip_6" depart="1.20" from="1" to="18"/>
    <trip id="random_trip_7" depart="1.40" from="40" to="39"/>
    <trip id="random_trip_8" depart="1.60" from="17" to="39"/>
    <trip id="random_trip_9" depart="1.80" from="52" to="0e966996-e84e-434d-9002-35bb861b9b3e_13"/>
    <trip id="random_trip_10" depart="2.00" from="52" to="43"/>
    <trip id="random_trip_11" depart="2.20" from="21" to="18"/>
    <trip id="random_trip_12" depart="2.40" from="7" to="21"/>
    <trip id="random_trip_13" depart="2.60" from="1" to="18"/>
    <trip id="random_trip_14" depart="2.80" from="56" to="39"/>
    <trip id="random_trip_15" depart="3.00" from="52" to="46"/>
    <trip id="random_trip_16" depart="3.20" from="38" to="8"/>
    <trip id="random_trip_17" depart="3.40" from="25" to="39"/>
    <trip id="random_trip_18" depart="3.60" from="54" to="39"/>
    <trip id="random_trip_19" depart="3.80" from="56" to="39"/>
    <trip id="random_trip_20" depart="4.00" from="44" to="13"/>
    <trip id="random_trip_21" depart="4.20" from="17" to="2"/>
    <trip id="random_trip_22" depart="4.40" from="1" to="2"/>
    <trip id="random_trip_23" depart="4.60" from="1" to="2"/>
    <trip id="random_trip_24" depart="4.80" from="40" to="23"/>
    <trip id="random_trip_25" depart="5.00" from="24" to="19"/>
    <trip id="random_trip_26" depart="5.20" from="17" to="55"/>
    <trip id="random_trip_27" depart="5.40" from="40" to="39"/>
    <trip id="random_trip_28" depart="5.60" from="14" to="46"/>
    <trip id="random_trip_29" depart="5.80" from="13" to="25"/>
    <trip id="random_trip_30" depart="6.00" from="test" to="39"/>
    <trip id="random_trip_31" depart="6.20" from="40" to="42"/>
    <trip id="random_trip_32" depart="6.40" from="56" to="5"/>
    <trip id="random_trip_33" depart="6.60" from="17" to="11"/>
    <trip id="random_trip_34" depart="6.80" from="19" to="2"/>
    <trip id="random_trip_35" depart="7.00" from="17" to="55"/>
    <trip id="random_trip_36" depart="7.20" from="56" to="2"/>
    <trip id="random_trip_37" depart="7.40" from="40" to="26"/>
    <trip id="random_trip_38" depart="7.60" from="56" to="31"/>
    <trip id="random_trip_39" depart="7.80" from="17" to="2"/>
    <trip id="random_trip_40" depart="8.00" from="40" to="2"/>
    <trip id="random_trip_41" depart="8.20" from="40" to="55"/>
    <trip id="random_trip_42" depart="8.40" from="26" to="2"/>
    <trip id="random_trip_43" depart="8.60" from="test" to="35"/>
    <trip id="random_trip_44" depart="8.80" from="1" to="13"/>
    <trip id="random_trip_45" depart="9.00" from="1" to="39"/>
    <trip id="random_trip_46" depart="9.20" from="51" to="28"/>
    <trip id="random_trip_47" depart="9.40" from="1" to="25"/>
    <trip id="random_trip_48" depart="9.60" from="test" to="37"/>
    <trip id="random_trip_49" depart="9.80" from="8" to="55"/>
    <trip id="random_trip_50" depart="10.00" from="1" to="45"/>
    <trip id="random_trip_51" depart="10.20" from="42" to="38"/>
    <trip id="random_trip_52" depart="10.40" from="17" to="39"/>
    <trip id="random_trip_53" depart="10.60" from="1" to="3"/>
    <trip id="random_trip_54" depart="10.80" from="30" to="6"/>
    <trip id="random_trip_55" depart="11.00" from="56" to="2"/>
    <trip id="random_trip_56" depart="11.20" from="35" to="18"/>
    <trip id="random_trip_57" depart="11.40" from="56" to="55"/>
    <trip id="random_trip_58" depart="11.60" from="17" to="39"/>
    <trip id="random_trip_59" depart="11.80" from="40" to="18"/>
    <trip id="random_trip_60" depart="12.00" from="49" to="38"/>
    <trip id="random_trip_61" depart="12.20" from="50" to="37"/>
    <trip id="random_trip_62" depart="12.40" from="0e966996-e84e-434d-9002-35bb861b9b3e_13" to="20"/>
    <trip id="random_trip_63" depart="12.60" from="1" to="55"/>
    <trip id="random_trip_64" depart="12.80" from="56" to="54"/>
    <trip id="random_trip_65" depart="13.00" from="17" to="14"/>
    <trip id="random_trip_66" depart="13.20" from="56" to="6"/>
    <trip id="random_trip_67" depart="13.40" from="1" to="33"/>
    <trip id="random_trip_68" depart="13.60" from="1" to="49"/>
    <trip id="random_trip_69" depart="13.80" from="49" to="18"/>
    <trip id="random_trip_70" depart="14.00" from="32" to="39"/>
    <trip id="random_trip_71" depart="14.20" from="17" to="55"/>
    <trip id="random_trip_72" depart="14.40" from="29" to="2"/>
    <trip id="random_trip_73" depart="14.60" from="38" to="46"/>
    <trip id="random_trip_74" depart="14.80" from="17" to="2"/>
    <trip id="random_trip_75" depart="15.00" from="test" to="39"/>
    <trip id="random_trip_76" depart="15.20" from="3" to="36"/>
    <trip id="random_trip_77" depart="15.40" from="1" to="2"/>
    <trip id="random_trip_78" depart="15.60" from="21" to="39"/>
    <trip id="random_trip_79" depart="15.80" from="17" to="2"/>
    <trip id="random_trip_80" depart="16.00" from="1" to="39"/>
    <trip id="random_trip_81" depart="16.20" from="17" to="55"/>
    <trip id="random_trip_82" depart="16.40" from="56" to="15"/>
    <trip id="random_trip_83" depart="16.60" from="17" to="41"/>
    <trip id="random_trip_84" depart="16.80" from="17" to="18"/>
    <trip id="random_trip_85" depart="17.00" from="56" to="39"/>
    <trip id="random_trip_86" depart="17.20" from="32" to="50"/>
    <trip id="random_trip_87" depart="17.40" from="52" to="18"/>
    <trip id="random_trip_88" depart="17.60" from="1" to="29"/>
    <trip id="random_trip_89" depart="17.80" from="29" to="32"/>
    <trip id="random_trip_90" depart="18.00" from="46" to="41"/>
    <trip id="random_trip_91" depart="18.20" from="9" to="18"/>
    <trip id="random_trip_92" depart="18.40" from="27" to="21"/>
    <trip id="random_trip_93" depart="18.60" from="56" to="2"/>
    <trip id="random_trip_94" depart="18.80" from="16" to="30"/>
    <trip id="random_trip_95" depart="19.00" from="28" to="2"/>
    <trip id="random_trip_96" depart="19.20" from="17" to="55"/>
    <trip id="random_trip_97" depart="19.40" from="3" to="55"/>
    <trip id="random_trip_98" depart="19.60" from="4" to="13"/>
    <trip id="random_trip_99" depart="19.80" from="test" to="55"/>
    <trip id="random_trip_100" depart="20.00" from="8" to="55"/>
    <trip id="random_trip_101" depart="20.20" from="56" to="18"/>
    <trip id="random_trip_102" depart="20.40" from="33" to="2"/>
    <trip id="random_trip_103" depart="20.60" from="27" to="14"/>
    <trip id="random_trip_104" depart="20.80" from="25" to="9"/>
    <trip id="random_trip_105" depart="21.00" from="17" to="50"/>
    <trip id="random_trip_106" depart="21.20" from="30" to="29"/>
    <trip id="random_trip_107" depart="21.40" from="7" to="test"/>
    <trip id="random_trip_108" depart="21.60" from="40" to="45"/>
    <trip id="random_trip_109" depart="21.80" from="12" to="2"/>
    <trip id="random_trip_110" depart="22.00" from="8" to="39"/>
    <trip id="random_trip_111" depart="22.20" from="38" to="48"/>
    <trip id="random_trip_112" depart="22.40" from="1" to="39"/>
    <trip id="random_trip_113" depart="22.60" from="35" to="55"/>
    <trip id="random_trip_114" depart="22.80" from="13" to="7"/>
    <trip id="random_trip_115" depart="23.00" from="1" to="18"/>
    <trip id="random_trip_116" depart="23.20" from="40" to="41"/>
    <trip id="random_trip_117" depart="23.40" from="17" to="18"/>
    <trip id="random_trip_118" depart="23.60" from="56" to="2"/>
    <trip id="random_trip_119" depart="23.80" from="40" to="39"/>
    <trip id="random_trip_120" depart="24.00" from="28" to="39"/>
    <trip id="random_trip_121" depart="24.20" from="37" to="55"/>
    <trip id="random_trip_122" depart="24.40" from="17" to="45"/>
    <trip id="random_trip_123" depart="24.60" from="17" to="26"/>
    <trip id="random_trip_124" depart="24.80" from="41" to="2"/>
    <trip id="random_trip_125" depart="25.00" from="19" to="48"/>
    <trip id="random_trip_126" depart="25.20" from="1" to="31"/>
    <trip id="random_trip_127" depart="25.40" from="test" to="test"/>
    <trip id="random_trip_128" depart="25.60" from="1" to="2"/>
    <trip id="random_trip_129" depart="25.80" from="17" to="55"/>
    <trip id="random_trip_130" depart="26.00" from="56" to="55"/>
    <trip id="random_trip_131" depart="26.20" from="24" to="18"/>
    <trip id="random_trip_132" depart="26.40" from="56" to="44"/>
    <trip id="random_trip_133" depart="26.60" from="40" to="9"/>
    <trip id="random_trip_134" depart="26.80" from="40" to="0e966996-e84e-434d-9002-35bb861b9b3e_13"/>
    <trip id="random_trip_135" depart="27.00" from="53" to="2"/>
    <trip id="random_trip_136" depart="27.20" from="40" to="55"/>
    <trip id="random_trip_137" depart="27.40" from="11" to="18"/>
    <trip id="random_trip_138" depart="27.60" from="1" to="39"/>
    <trip id="random_trip_139" depart="27.80" from="17" to="39"/>
    <trip id="random_trip_140" depart="28.00" from="45" to="19"/>
    <trip id="random_trip_141" depart="28.20" from="40" to="2"/>
    <trip id="random_trip_142" depart="28.40" from="33" to="55"/>
    <trip id="random_trip_143" depart="28.60" from="56" to="18"/>
    <trip id="random_trip_144" depart="28.80" from="29" to="2"/>
    <trip id="random_trip_145" depart="29.00" from="0e966996-e84e-434d-9002-35bb861b9b3e_13" to="5"/>
    <trip id="random_trip_146" depart="29.20" from="40" to="2"/>
    <trip id="random_trip_147" depart="29.40" from="47" to="39"/>
    <trip id="random_trip_148" depart="29.60" from="29" to="0e966996-e84e-434d-9002-35bb861b9b3e_13"/>
    <trip id="random_trip_149" depart="29.80" from="1" to="55"/>
    <trip id="random_trip_150" depart="30.00" from="56" to="39"/>
    <trip id="random_trip_151" depart="30.20" from="56" to="39"/>
    <trip id="random_trip_152" depart="30.40" from="12" to="18"/>
    <trip id="random_trip_153" depart="30.60" from="17" to="55"/>
    <trip id="random_trip_154" depart="30.80" from="51" to="55"/>
    <trip id="random_trip_155" depart="31.00" from="56" to="19"/>
    <trip id="random_trip_156" depart="31.20" from="17" to="18"/>
    <trip id="random_trip_157" depart="31.40" from="50" to="55"/>
    <trip id="random_trip_158" depart="31.60" from="27" to="39"/>
    <trip id="random_trip_159" depart="31.80" from="12" to="55"/>
    <trip id="random_trip_160" depart="32.00" from="56" to="8"/>
    <trip id="random_trip_161" depart="32.20" from="52" to="55"/>
    <trip id="random_trip_162" depart="32.40" from="1" to="47"/>
    <trip id="random_trip_163" depart="32.60" from="20" to="55"/>
    <trip id="random_trip_164" depart="32.80" from="52" to="55"/>
    <trip id="random_trip_165" depart="33.00" from="52" to="2"/>
    <trip id="random_trip_166" depart="33.20" from="50" to="18"/>
    <trip id="random_trip_167" depart="33.40" from="56" to="55"/>
    <trip id="random_trip_168" depart="33.60" from="17" to="53"/>
    <trip id="random_trip_169" depart="33.80" from="31" to="2"/>
    <trip id="random_trip_170" depart="34.00" from="51" to="2"/>
    <trip id="random_trip_171" depart="34.20" from="1" to="18"/>
    <trip id="random_trip_172" depart="34.40" from="20" to="55"/>
    <trip id="random_trip_173" depart="34.60" from="8" to="2"/>
    <trip id="random_trip_174" depart="34.80" from="40" to="26"/>
    <trip id="random_trip_175" depart="35.00" from="9" to="38"/>
    <trip id="random_trip_176" depart="35.20" from="56" to="18"/>
    <trip id="random_trip_177" depart="35.40" from="8" to="18"/>
    <trip id="random_trip_178" depart="35.60" from="7" to="2"/>
    <trip id="random_trip_179" depart="35.80" from="1" to="3"/>
    <trip id="random_trip_180" depart="36.00" from="46" to="2"/>
    <trip id="random_trip_181" depart="36.20" from="40" to="36"/>
    <trip id="random_trip_182" depart="36.40" from="25" to="39"/>
    <trip id="random_trip_183" depart="36.60" from="17" to="44"/>
    <trip id="random_trip_184" depart="36.80" from="0e966996-e84e-434d-9002-35bb861b9b3e_13" to="55"/>
    <trip id="random_trip_185" depart="37.00" from="38" to="45"/>
    <trip id="random_trip_186" depart="37.20" from="47" to="41"/>
    <trip id="random_trip_187" depart="37.40" from="23" to="15"/>
    <trip id="random_trip_188" depart="37.60" from="40" to="20"/>
    <trip id="random_trip_189" depart="37.80" from="19" to="55"/>
    <trip id="random_trip_190" depart="38.00" from="45" to="2"/>
    <trip id="random_trip_191" depart="38.20" from="17" to="27"/>
    <trip id="random_trip_192" depart="38.40" from="27" to="2"/>
    <trip id="random_trip_193" depart="38.60" from="10" to="28"/>
    <trip id="random_trip_194" depart="38.80" from="56" to="41"/>
    <trip id="random_trip_195" depart="39.00" from="56" to="39"/>
    <trip id="random_trip_196" depart="39.20" from="17" to="39"/>
    <trip id="random_trip_197" depart="39.40" from="0e966996-e84e-434d-9002-35bb861b9b3e_13" to="2"/>
    <trip id="random_trip_198" depart="39.60" from="29" to="39"/>
    <trip id="random_trip_199" depart="39.80" from="40" to="31"/>
    <trip id="random_trip_200" depart="40.00" from="3" to="2"/>
    <trip id="random_trip_201" depart="40.20" from="32" to="55"/>
    <trip id="random_trip_202" depart="40.40" from="51" to="18"/>
    <trip id="random_trip_203" depart="40.60" from="1" to="36"/>
    <trip id="random_trip_204" depart="40.80" from="40" to="21"/>
    <trip id="random_trip_205" depart="41.00" from="53" to="48"/>
    <trip id="random_trip_206" depart="41.20" from="41" to="2"/>
    <trip id="random_trip_207" depart="41.40" from="16" to="11"/>
    <trip id="random_trip_208" depart="41.60" from="17" to="32"/>
    <trip id="random_trip_209" depart="41.80" from="56" to="15"/>
    <trip id="random_trip_210" depart="42.00" from="28" to="39"/>
    <trip id="random_trip_211" depart="42.20" from="16" to="43"/>
    <trip id="random_trip_212" depart="42.40" from="34" to="2"/>
    <trip id="random_trip_213" depart="42.60" from="40" to="0e966996-e84e-434d-9002-35bb861b9b3e_13"/>
    <trip id="random_trip_214" depart="42.80" from="48" to="5"/>
    <trip id="random_trip_215" depart="43.00" from="1" to="29"/>
    <trip id="random_trip_216" depart="43.20" from="14" to="7"/>
    <trip id="random_trip_217" depart="43.40" from="36" to="13"/>
    <trip id="random_trip_218" depart="43.60" from="17" to="55"/>
    <trip id="random_trip_219" depart="43.80" from="31" to="52"/>
    <trip id="random_trip_220" depart="44.00" from="41" to="9"/>
    <trip id="random_trip_221" depart="44.20" from="40" to="6"/>
    <trip id="random_trip_222" depart="44.40" from="56" to="39"/>
    <trip id="random_trip_223" depart="44.60" from="45" to="35"/>
    <trip id="random_trip_224" depart="44.80" from="54" to="39"/>
    <trip id="random_trip_225" depart="45.00" from="56" to="47"/>
    <trip id="random_trip_226" depart="45.20" from="32" to="2"/>
    <trip id="random_trip_227" depart="45.40" from="17" to="39"/>
    <trip id="random_trip_228" depart="45.60" from="49" to="36"/>
    <trip id="random_trip_229" depart="45.80" from="40" to="2"/>
    <trip id="random_trip_230" depart="46.00" from="1" to="2"/>
    <trip id="random_trip_231" depart="46.20" from="17" to="2"/>
    <trip id="random_trip_232" depart="46.40" from="38" to="18"/>
    <trip id="random_trip_233" depart="46.60" from="17" to="43"/>
    <trip id="random_trip_234" depart="46.80" from="44" to="14"/>
    <trip id="random_trip_235" depart="47.00" from="27" to="38"/>
    <trip id="random_trip_236" depart="47.20" from="28" to="19"/>
    <trip id="random_trip_237" depart="47.40" from="28" to="55"/>
    <trip id="random_trip_238" depart="47.60" from="40" to="43"/>
    <trip id="random_trip_239" depart="47.80" from="56" to="49"/>
    <trip id="random_trip_240" depart="48.00" from="25" to="0e966996-e84e-434d-9002-35bb861b9b3e_13"/>
    <trip id="random_trip_241" depart="48.20" from="22" to="48"/>
    <trip id="random_trip_242" depart="48.40" from="56" to="6"/>
    <trip id="random_trip_243" depart="48.60" from="28" to="48"/>
    <trip id="random_trip_244" depart="48.80" from="4" to="39"/>
    <trip id="random_trip_245" depart="49.00" from="17" to="2"/>
    <trip id="random_trip_246" depart="49.20" from="3" to="11"/>
    <trip id="random_trip_247" depart="49.40" from="21" to="42"/>
    <trip id="random_trip_248" depart="49.60" from="27" to="18"/>
    <trip id="random_trip_249" depart="49.80" from="32" to="18"/>
    <trip id="random_trip_250" depart="50.00" from="40" to="11"/>
    <trip id="random_trip_251" depart="50.50" from="26" to="39"/>
    <trip id="random_trip_252" depart="51.00" from="1" to="39"/>
    <trip id="random_trip_253" depart="51.50" from="11" to="31"/>
    <trip id="random_trip_254" depart="52.00" from="1" to="25"/>
    <trip id="random_trip_255" depart="52.50" from="17" to="20"/>
    <trip id="random_trip_256" depart="53.00" from="49" to="25"/>
    <trip id="random_trip_257" depart="53.50" from="48" to="54"/>
    <trip id="random_trip_258" depart="54.00" from="17" to="16"/>
    <trip id="random_trip_259" depart="54.50" from="1" to="38"/>
    <trip id="random_trip_260" depart="55.00" from="test" to="22"/>
    <trip id="random_trip_261" depart="55.50" from="40" to="50"/>
    <trip id="random_trip_262" depart="56.00" from="40" to="48"/>
    <trip id="random_trip_263" depart="56.50" from="6" to="18"/>
    <trip id="random_trip_264" depart="57.00" from="1" to="18"/>
    <trip id="random_trip_265" depart="57.50" from="10" to="41"/>
    <trip id="random_trip_266" depart="58.00" from="40" to="2"/>
    <trip id="random_trip_267" depart="58.50" from="43" to="5"/>
    <trip id="random_trip_268" depart="59.00" from="14" to="39"/>
    <trip id="random_trip_269" depart="59.50" from="48" to="18"/>
    <trip id="random_trip_270" depart="60.00" from="53" to="7"/>
    <trip id="random_trip_271" depart="60.50" from="1" to="11"/>
    <trip id="random_trip_272" depart="61.00" from="19" to="41"/>
    <trip id="random_trip_273" depart="61.50" from="7" to="26"/>
    <trip id="random_trip_274" depart="62.00" from="45" to="15"/>
    <trip id="random_trip_275" depart="62.50" from="43" to="39"/>
    <trip id="random_trip_276" depart="63.00" from="1" to="5"/>
    <trip id="random_trip_277" depart="63.50" from="56" to="39"/>
    <trip id="random_trip_278" depart="64.00" from="1" to="9"/>
    <trip id="random_trip_279" depart="64.50" from="50" to="22"/>
    <trip id="random_trip_280" depart="65.00" from="29" to="24"/>
    <trip id="random_trip_281" depart="65.50" from="35" to="21"/>
    <trip id="random_trip_282" depart="66.00" from="56" to="54"/>
    <trip id="random_trip_283" depart="66.50" from="1" to="7"/>
    <trip id="random_trip_284" depart="67.00" from="40" to="54"/>
    <trip id="random_trip_285" depart="67.50" from="44" to="3"/>
    <trip id="random_trip_286" depart="68.00" from="47" to="7"/>
    <trip id="random_trip_287" depart="68.50" from="17" to="52"/>
    <trip id="random_trip_288" depart="69.00" from="38" to="33"/>
    <trip id="random_trip_289" depart="69.50" from="3" to="46"/>
    <trip id="random_trip_290" depart="70.00" from="17" to="55"/>
    <trip id="random_trip_291" depart="70.50" from="54" to="16"/>
    <trip id="random_trip_292" depart="71.00" from="56" to="2"/>
    <trip id="random_trip_293" depart="71.50" from="31" to="39"/>
    <trip id="random_trip_294" depart="72.00" from="25" to="11"/>
    <trip id="random_trip_295" depart="72.50" from="56" to="18"/>
    <trip id="random_trip_296" depart="73.00" from="17" to="51"/>
    <trip id="random_trip_297" depart="73.50" from="21" to="55"/>
    <trip id="random_trip_298" depart="74.00" from="44" to="2"/>
    <trip id="random_trip_299" depart="74.50" from="0e966996-e84e-434d-9002-35bb861b9b3e_13" to="6"/>
    <trip id="random_trip_300" depart="75.00" from="1" to="45"/>
    <trip id="random_trip_301" depart="75.50" from="33" to="49"/>
    <trip id="random_trip_302" depart="76.00" from="43" to="39"/>
    <trip id="random_trip_303" depart="76.50" from="34" to="51"/>
    <trip id="random_trip_304" depart="77.00" from="1" to="2"/>
    <trip id="random_trip_305" depart="77.50" from="43" to="2"/>
    <trip id="random_trip_306" depart="78.00" from="40" to="32"/>
    <trip id="random_trip_307" depart="78.50" from="37" to="29"/>
    <trip id="random_trip_308" depart="79.00" from="48" to="20"/>
    <trip id="random_trip_309" depart="79.50" from="44" to="2"/>
    <trip id="random_trip_310" depart="80.00" from="17" to="18"/>
    <trip id="random_trip_311" depart="80.50" from="16" to="18"/>
    <trip id="random_trip_312" depart="81.00" from="38" to="49"/>
    <trip id="random_trip_313" depart="81.50" from="15" to="2"/>
    <trip id="random_trip_314" depart="82.00" from="33" to="46"/>
    <trip id="random_trip_315" depart="82.50" from="8" to="37"/>
    <trip id="random_trip_316" depart="83.00" from="17" to="18"/>
    <trip id="random_trip_317" depart="83.50" from="16" to="2"/>
    <trip id="random_trip_318" depart="84.00" from="15" to="10"/>
    <trip id="random_trip_319" depart="84.50" from="38" to="2"/>
    <trip id="random_trip_320" depart="85.00" from="8" to="39"/>
    <trip id="random_trip_321" depart="85.50" from="43" to="18"/>
    <trip id="random_trip_322" depart="86.00" from="56" to="34"/>
    <trip id="random_trip_323" depart="86.50" from="56" to="39"/>
    <trip id="random_trip_324" depart="87.00" from="32" to="3"/>
    <trip id="random_trip_325" depart="87.50" from="15" to="13"/>
    <trip id="random_trip_326" depart="88.00" from="56" to="32"/>
    <trip id="random_trip_327" depart="88.50" from="53" to="27"/>
    <trip id="random_trip_328" depart="89.00" from="1" to="39"/>
    <trip id="random_trip_329" depart="89.50" from="1" to="18"/>
    <trip id="random_trip_330" depart="90.00" from="40" to="2"/>
    <trip id="random_trip_331" depart="90.50" from="test" to="18"/>
    <trip id="random_trip_332" depart="91.00" from="49" to="39"/>
    <trip id="random_trip_333" depart="91.50" from="51" to="2"/>
    <trip id="random_trip_334" depart="92.00" from="37" to="30"/>
    <trip id="random_trip_335" depart="92.50" from="3" to="55"/>
    <trip id="random_trip_336" depart="93.00" from="test" to="2"/>
    <trip id="random_trip_337" depart="93.50" from="40" to="39"/>
    <trip id="random_trip_338" depart="94.00" from="47" to="6"/>
    <trip id="random_trip_339" depart="94.50" from="17" to="19"/>
    <trip id="random_trip_340" depart="95.00" from="40" to="18"/>
    <trip id="random_trip_341" depart="95.50" from="14" to="15"/>
    <trip id="random_trip_342" depart="96.00" from="0e966996-e84e-434d-9002-35bb861b9b3e_13" to="30"/>
    <trip id="random_trip_343" depart="96.50" from="40" to="2"/>
    <trip id="random_trip_344" depart="97.00" from="17" to="44"/>
    <trip id="random_trip_345" depart="97.50" from="44" to="30"/>
    <trip id="random_trip_346" depart="98.00" from="42" to="55"/>
    <trip id="random_trip_347" depart="98.50" from="50" to="39"/>
    <trip id="random_trip_348" depart="99.00" from="40" to="55"/>
    <trip id="random_trip_349" depart="99.50" from="29" to="39"/>
</routes>
