<configuration><input><net-file value="sim_4.net.xml" /><route-files value="sim_4.rou.xml" /></input><time><begin value="0" /></time></configuration>