<configuration><input><net-file value="sim_7.net.xml" /><route-files value="sim_7.rou.xml" /></input><time><begin value="0" /></time></configuration>