<?xml version="1.0" encoding="UTF-8"?>

<!-- generated on 2023-06-26 02:46:18 by Eclipse SUMO netconvert Version 1.16.0
<configuration xmlns:xsi="http://www.w3.org/2001/XMLSchema-instance" xsi:noNamespaceSchemaLocation="http://sumo.dlr.de/xsd/netconvertConfiguration.xsd">

    <input>
        <node-files value="data/simulationConfigurations/tmp/sim_7\sim_7.nod.xml"/>
        <edge-files value="data/simulationConfigurations/tmp/sim_7\sim_7.edg.xml"/>
    </input>

    <output>
        <output-file value="data/simulationConfigurations/tmp/sim_7\sim_7.net.xml"/>
    </output>

</configuration>
-->

<net version="1.16" junctionCornerDetail="5" limitTurnSpeed="5.50" xmlns:xsi="http://www.w3.org/2001/XMLSchema-instance" xsi:noNamespaceSchemaLocation="http://sumo.dlr.de/xsd/net_file.xsd">

    <location netOffset="-118.04,-273.48" convBoundary="0.00,0.00,814.06,683.94" origBoundary="118.04,120.00,932.09,957.42" projParameter="!"/>

    <edge id=":V0001_0" function="internal">
        <lane id=":V0001_0_0" index="0" speed="5.53" length="11.27" shape="20.51,666.91 18.43,670.16 18.26,671.92 20.01,672.19 23.67,670.95"/>
        <lane id=":V0001_0_1" index="1" speed="6.82" length="18.07" shape="20.51,666.91 17.04,672.28 16.62,675.24 19.25,675.78 24.94,673.89"/>
    </edge>
    <edge id=":V0002_0" function="internal">
        <lane id=":V0002_0_0" index="0" speed="5.57" length="11.62" shape="785.13,347.88 788.70,346.02 789.75,344.57 788.29,343.54 784.31,342.93"/>
        <lane id=":V0002_0_1" index="1" speed="6.90" length="18.83" shape="785.13,347.88 791.09,344.80 792.98,342.42 790.81,340.73 784.56,339.74"/>
        <lane id=":V0002_0_2" index="2" speed="8.01" length="26.03" shape="785.13,347.88 793.48,343.58 796.21,340.26 793.32,337.92 784.81,336.55"/>
    </edge>
    <edge id=":V0002_3" function="internal">
        <lane id=":V0002_3_0" index="0" speed="8.67" length="25.20" shape="785.13,347.88 793.85,343.39 798.36,339.19 798.64,335.30 794.72,331.70"/>
        <lane id=":V0002_3_1" index="1" speed="9.35" length="29.51" shape="785.13,347.88 795.33,342.62 800.60,337.71 800.92,333.14 796.30,328.92"/>
    </edge>
    <edge id=":V0002_5" function="internal">
        <lane id=":V0002_5_0" index="0" speed="11.64" length="30.74" shape="785.13,347.88 793.96,343.09 799.47,337.72 801.67,331.76 800.55,325.21"/>
        <lane id=":V0002_5_1" index="1" speed="12.14" length="33.50" shape="785.13,347.88 795.25,342.54 801.68,336.78 804.44,330.61 803.51,324.00"/>
        <lane id=":V0002_5_2" index="2" speed="12.62" length="36.32" shape="785.13,347.88 796.54,342.00 803.89,335.85 807.21,329.46 806.48,322.80"/>
    </edge>
    <edge id=":V0002_8" function="internal">
        <lane id=":V0002_8_0" index="0" speed="9.86" length="32.97" shape="785.13,347.88 796.06,343.59 805.70,340.96 812.18,341.26 813.61,345.79"/>
    </edge>
    <edge id=":V0005_0" function="internal">
        <lane id=":V0005_0_0" index="0" speed="5.46" length="10.18" shape="716.57,118.25 715.00,115.29 713.54,114.35 712.18,115.43 710.91,118.53"/>
        <lane id=":V0005_0_1" index="1" speed="6.58" length="15.62" shape="716.57,118.25 714.09,113.45 711.81,111.74 709.73,113.13 707.84,117.62"/>
    </edge>
    <edge id=":V0005_2" function="internal">
        <lane id=":V0005_2_0" index="0" speed="9.75" length="25.51" shape="719.53,117.05 715.24,107.82 711.19,101.94 707.40,99.39 703.86,100.18"/>
    </edge>
    <edge id=":V0005_3" function="internal">
        <lane id=":V0005_3_0" index="0" speed="12.04" length="30.97" shape="722.50,115.84 717.70,105.97 712.67,99.40 707.40,96.12 701.89,96.15"/>
    </edge>
    <edge id=":V0007_0" function="internal">
        <lane id=":V0007_0_0" index="0" speed="10.57" length="40.65" shape="752.33,596.68 748.73,599.32 742.36,594.17 734.44,583.95 726.18,571.36"/>
        <lane id=":V0007_0_1" index="1" speed="10.19" length="37.67" shape="752.33,596.68 749.50,597.49 743.98,591.86 736.78,581.88 728.90,569.66"/>
    </edge>
    <edge id=":V0007_2" function="internal">
        <lane id=":V0007_2_0" index="0" speed="5.49" length="10.83" shape="719.93,577.01 723.36,578.30 725.10,578.07 725.13,576.32 723.47,573.05"/>
        <lane id=":V0007_2_1" index="1" speed="7.74" length="23.37" shape="718.55,579.90 725.96,582.68 729.70,582.18 729.77,578.41 726.18,571.36"/>
        <lane id=":V0007_2_2" index="2" speed="9.48" length="35.91" shape="717.17,582.78 728.55,587.06 734.30,586.30 734.41,580.50 728.90,569.66"/>
    </edge>
    <edge id=":V0008_0" function="internal">
        <lane id=":V0008_0_0" index="0" speed="6.93" length="17.98" shape="379.11,29.87 377.34,22.02 375.54,17.59 373.70,16.58 371.82,18.99"/>
    </edge>
    <edge id=":V0008_1" function="internal">
        <lane id=":V0008_1_0" index="0" speed="6.05" length="15.40" shape="379.11,29.87 380.10,25.22 382.06,23.03 385.00,23.28 388.91,25.98"/>
    </edge>
    <edge id=":V0008_2" function="internal">
        <lane id=":V0008_2_0" index="0" speed="12.07" length="70.68" shape="383.55,28.38 398.05,50.54 404.26,57.31 402.18,48.69 391.83,24.67"/>
        <lane id=":V0008_2_1" index="1" speed="6.75" length="20.56" shape="386.50,27.06 390.72,33.51 392.52,35.47 391.92,32.97 388.91,25.98"/>
    </edge>
    <edge id=":V0008_4" function="internal">
        <lane id=":V0008_4_0" index="0" speed="9.41" length="28.90" shape="389.45,25.74 382.93,16.84 377.33,12.53 372.66,12.80 368.92,17.65"/>
    </edge>
    <edge id=":V0008_5" function="internal">
        <lane id=":V0008_5_0" index="0" speed="12.08" length="37.34" shape="369.31,-1.87 374.52,-2.01 380.06,3.19 385.86,12.50 391.83,24.67"/>
        <lane id=":V0008_5_1" index="1" speed="11.23" length="32.13" shape="371.04,0.82 374.56,1.45 378.84,6.56 383.69,15.10 388.91,25.98"/>
    </edge>
    <edge id=":V0008_7" function="internal">
        <lane id=":V0008_7_0" index="0" speed="7.40" length="21.20" shape="371.04,0.82 374.07,0.44 373.95,4.42 371.84,10.81 368.92,17.65"/>
    </edge>
    <edge id=":V0009_0" function="internal">
        <lane id=":V0009_0_0" index="0" speed="17.50" length="19.43" shape="156.96,486.16 153.94,491.78 150.99,495.86 148.24,499.04 145.78,501.95"/>
    </edge>
    <edge id=":V0009_1" function="internal">
        <lane id=":V0009_1_0" index="0" speed="16.73" length="18.86" shape="150.39,484.00 150.05,490.16 149.18,494.96 147.76,498.77 145.78,501.95"/>
    </edge>
    <edge id=":V0010_0" function="internal">
        <lane id=":V0010_0_0" index="0" speed="5.50" length="12.02" shape="28.43,240.39 32.53,239.29 33.82,238.31 32.30,237.45 27.96,236.71"/>
        <lane id=":V0010_0_1" index="1" speed="2.69" length="1.32" shape="28.43,240.39 28.88,240.27 29.02,240.16 28.86,240.06 28.38,239.98"/>
        <lane id=":V0010_0_2" index="2" speed="4.96" length="9.37" shape="28.43,240.39 25.23,241.25 24.22,242.01 25.41,242.68 28.80,243.25"/>
    </edge>
    <edge id=":V0010_3" function="internal">
        <lane id=":V0010_3_0" index="0" speed="6.89" length="17.43" shape="28.43,240.39 20.42,242.21 15.14,243.72 12.58,244.92 12.75,245.80"/>
    </edge>
    <edge id=":V0010_4" function="internal">
        <lane id=":V0010_4_0" index="0" speed="7.49" length="23.65" shape="28.02,237.20 22.25,236.18 19.24,231.61 19.47,225.71 23.45,220.68"/>
        <lane id=":V0010_4_1" index="1" speed="6.85" length="19.46" shape="28.02,237.20 23.41,236.32 21.25,232.49 21.76,227.55 25.18,223.37"/>
    </edge>
    <edge id=":V0010_6" function="internal">
        <lane id=":V0010_6_0" index="0" speed="3.65" length="4.69" shape="28.02,237.20 26.73,236.56 26.23,235.81 26.52,234.97 27.62,234.02"/>
    </edge>
    <edge id=":V0011_0" function="internal">
        <lane id=":V0011_0_0" index="0" speed="7.37" length="11.72" shape="402.15,502.53 404.05,505.91 406.13,508.02 408.39,508.85 410.82,508.40"/>
    </edge>
    <edge id=":V0011_1" function="internal">
        <lane id=":V0011_1_0" index="0" speed="11.50" length="14.75" shape="396.41,511.10 400.86,509.74 404.42,509.41 407.58,509.25 410.82,508.40"/>
    </edge>
    <edge id=":V0012_0" function="internal">
        <lane id=":V0012_0_0" index="0" speed="11.90" length="15.20" shape="390.83,111.77 389.67,106.41 388.36,102.31 386.92,99.48 385.33,97.90"/>
        <lane id=":V0012_0_1" index="1" speed="12.90" length="17.95" shape="393.98,111.19 392.62,105.15 390.98,100.45 389.09,97.11 386.92,95.12"/>
    </edge>
    <edge id=":V0012_2" function="internal">
        <lane id=":V0012_2_0" index="0" speed="15.00" length="18.97" shape="393.98,111.19 390.57,92.54"/>
    </edge>
    <edge id=":V0012_3" function="internal">
        <lane id=":V0012_3_0" index="0" speed="17.00" length="16.41" shape="397.63,108.61 393.72,105.80 391.48,103.26 389.24,100.71 385.33,97.90"/>
        <lane id=":V0012_3_1" index="1" speed="17.00" length="16.41" shape="399.21,105.83 395.30,103.02 393.07,100.48 390.83,97.93 386.92,95.12"/>
    </edge>
    <edge id=":V0012_5" function="internal">
        <lane id=":V0012_5_0" index="0" speed="11.85" length="15.07" shape="400.80,103.05 396.68,100.41 393.60,97.77 391.56,95.15 390.57,92.54"/>
    </edge>
    <edge id=":V0013_0" function="internal">
        <lane id=":V0013_0_0" index="0" speed="5.60" length="9.33" shape="387.51,167.92 384.82,168.85 383.62,170.22 383.91,172.02 385.69,174.24"/>
        <lane id=":V0013_0_1" index="1" speed="7.38" length="17.34" shape="386.85,164.79 381.85,166.53 379.62,169.07 380.16,172.41 383.46,176.54"/>
        <lane id=":V0013_0_2" index="2" speed="8.81" length="25.35" shape="386.19,161.65 378.89,164.20 375.63,167.92 376.41,172.80 381.24,178.84"/>
    </edge>
    <edge id=":V0013_3" function="internal">
        <lane id=":V0013_3_0" index="0" speed="11.00" length="21.95" shape="367.83,161.42 372.54,165.28 376.49,167.57 380.58,169.99 385.69,174.24"/>
        <lane id=":V0013_3_1" index="1" speed="11.00" length="21.95" shape="365.61,163.72 370.32,167.58 374.27,169.87 378.35,172.29 383.46,176.54"/>
        <lane id=":V0013_3_2" index="2" speed="11.00" length="21.95" shape="365.61,163.72 381.24,178.84"/>
    </edge>
    <edge id=":V0014_0" function="internal">
        <lane id=":V0014_0_0" index="0" speed="6.25" length="11.91" shape="146.83,141.29 150.10,139.74 152.43,139.90 153.80,141.78 154.22,145.38"/>
        <lane id=":V0014_0_1" index="1" speed="3.99" length="3.97" shape="148.56,143.98 149.65,143.46 150.42,143.52 150.88,144.15 151.02,145.35"/>
    </edge>
    <edge id=":V0015_0" function="internal">
        <lane id=":V0015_0_0" index="0" speed="5.14" length="10.69" shape="489.67,264.29 498.88,258.86"/>
        <lane id=":V0015_0_1" index="1" speed="6.90" length="20.98" shape="492.45,262.66 497.25,268.71 499.46,270.37 499.08,267.63 496.11,260.50"/>
    </edge>
    <edge id=":V0015_2" function="internal">
        <lane id=":V0015_2_0" index="0" speed="6.05" length="7.59" shape="495.22,261.02 493.58,259.20 491.98,258.20 490.41,258.04 488.88,258.71"/>
    </edge>
    <edge id=":V0015_3" function="internal">
        <lane id=":V0015_3_0" index="0" speed="21.50" length="17.84" shape="494.61,241.81 496.30,246.73 496.74,250.34 497.19,253.95 498.88,258.86"/>
        <lane id=":V0015_3_1" index="1" speed="21.50" length="17.84" shape="491.70,243.14 493.43,248.15 493.90,251.82 494.37,255.50 496.11,260.50"/>
    </edge>
    <edge id=":V0015_5" function="internal">
        <lane id=":V0015_5_0" index="0" speed="8.25" length="12.88" shape="488.78,244.48 490.01,248.13 490.12,251.29 489.12,253.95 487.01,256.12"/>
    </edge>
    <edge id=":V0015_6" function="internal">
        <lane id=":V0015_6_0" index="0" speed="7.73" length="15.13" shape="485.14,253.52 488.02,252.38 490.81,253.16 493.51,255.87 496.11,260.50"/>
    </edge>
    <edge id=":V0015_7" function="internal">
        <lane id=":V0015_7_0" index="0" speed="3.65" length="4.67" shape="485.14,253.52 486.58,253.47 487.38,253.88 487.52,254.77 487.01,256.12"/>
    </edge>
    <edge id=":V0016_0" function="internal">
        <lane id=":V0016_0_0" index="0" speed="6.99" length="8.90" shape="652.26,332.66 650.18,332.86 648.46,333.81 647.09,335.51 646.07,337.96"/>
        <lane id=":V0016_0_1" index="1" speed="7.76" length="11.14" shape="652.26,332.66 648.77,332.71 646.06,333.46 644.14,334.91 643.00,337.06"/>
    </edge>
    <edge id=":V0016_2" function="internal">
        <lane id=":V0016_2_0" index="0" speed="20.00" length="13.02" shape="652.26,332.66 639.28,331.65"/>
        <lane id=":V0016_2_1" index="1" speed="20.00" length="13.02" shape="652.51,329.47 639.53,328.46"/>
        <lane id=":V0016_2_2" index="2" speed="20.00" length="13.02" shape="652.76,326.28 639.78,325.27"/>
    </edge>
    <edge id=":V0017_0" function="internal">
        <lane id=":V0017_0_0" index="0" speed="10.00" length="14.50" shape="222.34,336.35 221.41,339.57 221.17,342.72 220.76,346.26 219.28,350.66"/>
        <lane id=":V0017_0_1" index="1" speed="10.00" length="14.50" shape="222.34,336.35 216.37,349.33"/>
    </edge>
    <edge id=":V0017_2" function="internal">
        <lane id=":V0017_2_0" index="0" speed="8.03" length="14.12" shape="215.00,339.01 218.23,341.15 220.02,343.81 220.37,346.98 219.28,350.66"/>
        <lane id=":V0017_2_1" index="1" speed="6.53" length="9.01" shape="213.62,341.89 215.69,343.27 216.84,344.96 217.07,346.98 216.37,349.33"/>
    </edge>
    <edge id=":V0018_0" function="internal">
        <lane id=":V0018_0_0" index="0" speed="5.53" length="9.46" shape="549.09,304.44 552.04,304.43 553.58,303.53 553.74,301.75 552.49,299.08"/>
        <lane id=":V0018_0_1" index="1" speed="6.53" length="13.80" shape="549.09,304.44 553.73,304.50 556.30,303.35 556.79,300.98 555.21,297.39"/>
        <lane id=":V0018_0_2" index="2" speed="7.40" length="18.16" shape="549.09,304.44 555.43,304.58 559.01,303.16 559.84,300.20 557.92,295.69"/>
    </edge>
    <edge id=":V0019_0" function="internal">
        <lane id=":V0019_0_0" index="0" speed="21.50" length="19.03" shape="513.33,464.44 516.27,462.09 518.92,458.56 522.39,454.68 527.80,451.27"/>
        <lane id=":V0019_0_1" index="1" speed="21.50" length="19.03" shape="513.33,464.44 516.51,462.53 519.68,459.97 523.61,457.09 529.06,454.21"/>
        <lane id=":V0019_0_2" index="2" speed="21.50" length="19.03" shape="513.33,464.44 530.32,457.16"/>
    </edge>
    <edge id=":V0019_3" function="internal">
        <lane id=":V0019_3_0" index="0" speed="7.51" length="16.29" shape="513.33,464.44 518.73,462.70 522.57,462.78 524.87,464.68 525.60,468.40"/>
        <lane id=":V0019_3_1" index="1" speed="6.70" length="12.68" shape="513.33,464.44 517.32,463.22 520.17,463.46 521.86,465.18 522.40,468.38"/>
        <lane id=":V0019_3_2" index="2" speed="5.80" length="9.15" shape="513.33,464.44 515.92,463.73 517.76,464.15 518.86,465.69 519.20,468.35"/>
    </edge>
    <edge id=":V0020_0" function="internal">
        <lane id=":V0020_0_0" index="0" speed="18.50" length="0.10" shape="262.11,184.44 262.11,184.44"/>
        <lane id=":V0020_0_1" index="1" speed="18.50" length="0.10" shape="259.19,185.75 259.19,185.75"/>
        <lane id=":V0020_0_2" index="2" speed="18.50" length="0.10" shape="256.28,187.07 256.28,187.07"/>
    </edge>
    <edge id=":V0021_0" function="internal">
        <lane id=":V0021_0_0" index="0" speed="4.97" length="1.72" shape="464.22,146.64 462.98,145.46"/>
    </edge>
    <edge id=":V0021_1" function="internal">
        <lane id=":V0021_1_0" index="0" speed="14.50" length="1.95" shape="464.22,146.64 465.92,147.61"/>
        <lane id=":V0021_1_1" index="1" speed="14.50" length="1.95" shape="465.81,143.86 467.50,144.83"/>
        <lane id=":V0021_1_2" index="2" speed="14.50" length="1.95" shape="467.40,141.08 469.09,142.05"/>
    </edge>
    <edge id=":V0022_0" function="internal">
        <lane id=":V0022_0_0" index="0" speed="7.43" length="16.51" shape="305.04,52.05 301.14,49.06 299.79,46.01 300.98,42.88 304.71,39.69"/>
        <lane id=":V0022_0_1" index="1" speed="5.72" length="9.20" shape="306.63,49.27 304.45,47.60 303.70,45.90 304.36,44.16 306.45,42.39"/>
    </edge>
    <edge id=":V0022_2" function="internal">
        <lane id=":V0022_2_0" index="0" speed="21.00" length="15.22" shape="291.92,47.93 304.71,39.69"/>
        <lane id=":V0022_2_1" index="1" speed="21.00" length="15.22" shape="293.65,50.62 306.45,42.39"/>
    </edge>
    <edge id=":V0023_0" function="internal">
        <lane id=":V0023_0_0" index="0" speed="19.50" length="28.97" shape="413.36,217.19 408.15,188.70"/>
    </edge>
    <edge id=":V0023_1" function="internal">
        <lane id=":V0023_1_0" index="0" speed="5.47" length="4.16" shape="413.36,217.19 413.06,213.72 413.33,213.10"/>
    </edge>
    <edge id=":V0023_5" function="internal">
        <lane id=":V0023_5_0" index="0" speed="5.47" length="6.30" shape="413.33,213.10 413.76,212.12 415.48,212.42 418.20,214.60"/>
    </edge>
    <edge id=":V0023_2" function="internal">
        <lane id=":V0023_2_0" index="0" speed="5.47" length="10.46" shape="403.31,191.29 406.03,193.47 407.75,193.76 408.45,192.17 408.15,188.70"/>
    </edge>
    <edge id=":V0023_3" function="internal">
        <lane id=":V0023_3_0" index="0" speed="12.50" length="26.91" shape="401.08,193.59 420.43,212.30"/>
        <lane id=":V0023_3_1" index="1" speed="12.50" length="26.91" shape="398.86,195.89 418.20,214.60"/>
    </edge>
    <edge id=":V0024_0" function="internal">
        <lane id=":V0024_0_0" index="0" speed="7.03" length="7.95" shape="324.95,113.25 324.20,115.45 324.07,117.41 324.56,119.14 325.67,120.63"/>
    </edge>
    <edge id=":V0024_1" function="internal">
        <lane id=":V0024_1_0" index="0" speed="15.00" length="9.06" shape="319.16,114.33 325.67,120.63"/>
        <lane id=":V0024_1_1" index="1" speed="15.00" length="9.06" shape="316.94,116.63 323.45,122.93"/>
    </edge>
    <edge id=":V0025_0" function="internal">
        <lane id=":V0025_0_0" index="0" speed="7.06" length="7.23" shape="155.61,306.07 155.79,308.14 156.37,309.83 157.37,311.16 158.78,312.11"/>
        <lane id=":V0025_0_1" index="1" speed="8.54" length="10.88" shape="152.41,306.03 152.69,309.05 153.62,311.55 155.19,313.53 157.40,315.00"/>
    </edge>
    <edge id=":V0025_2" function="internal">
        <lane id=":V0025_2_0" index="0" speed="17.50" length="11.89" shape="149.21,306.00 149.67,309.51 150.74,311.82 151.82,314.13 152.28,317.64"/>
        <lane id=":V0025_2_1" index="1" speed="17.50" length="11.89" shape="149.21,306.00 149.08,317.60"/>
    </edge>
    <edge id=":V0025_4" function="internal">
        <lane id=":V0025_4_0" index="0" speed="17.50" length="14.42" shape="144.59,308.87 147.78,309.85 150.91,310.12 154.43,310.59 158.78,312.11"/>
        <lane id=":V0025_4_1" index="1" speed="17.50" length="14.42" shape="144.59,308.87 157.40,315.00"/>
    </edge>
    <edge id=":V0025_6" function="internal">
        <lane id=":V0025_6_0" index="0" speed="8.35" length="10.39" shape="144.59,308.87 146.58,310.24 147.99,312.15 148.82,314.60 149.08,317.60"/>
    </edge>
    <edge id=":V0026_0" function="internal">
        <lane id=":V0026_0_0" index="0" speed="23.00" length="18.97" shape="519.78,246.67 517.45,241.05 516.97,236.11 516.91,231.87 515.88,228.34"/>
    </edge>
    <edge id=":V0026_1" function="internal">
        <lane id=":V0026_1_0" index="0" speed="7.97" length="14.79" shape="527.28,235.04 524.70,235.97 521.94,235.15 519.00,232.61 515.88,228.34"/>
    </edge>
    <edge id=":V0028_0" function="internal">
        <lane id=":V0028_0_0" index="0" speed="5.22" length="9.38" shape="439.06,128.58 437.39,128.05 436.80,128.97 437.27,131.35 438.82,135.17"/>
    </edge>
    <edge id=":V0028_1" function="internal">
        <lane id=":V0028_1_0" index="0" speed="22.00" length="18.72" shape="439.06,128.58 434.01,126.28 430.24,125.39 426.47,124.50 421.42,122.20"/>
        <lane id=":V0028_1_1" index="1" speed="22.00" length="18.72" shape="440.64,125.80 435.60,123.50 431.83,122.61 428.05,121.72 423.01,119.42"/>
        <lane id=":V0028_1_2" index="2" speed="22.00" length="18.72" shape="440.64,125.80 424.59,116.64"/>
    </edge>
    <edge id=":V0028_4" function="internal">
        <lane id=":V0028_4_0" index="0" speed="23.50" length="24.69" shape="431.56,111.60 434.16,118.48 435.97,125.09 437.39,130.85 438.82,135.17"/>
    </edge>
    <edge id=":V0028_5" function="internal">
        <lane id=":V0028_5_0" index="0" speed="6.63" length="4.53" shape="428.65,112.93 430.17,117.20"/>
        <lane id=":V0028_5_1" index="1" speed="5.46" length="4.16" shape="428.65,112.93 429.80,116.22 429.68,116.89"/>
    </edge>
    <edge id=":V0028_7" function="internal">
        <lane id=":V0028_7_0" index="0" speed="6.63" length="11.72" shape="430.17,117.20 430.55,118.26 430.25,121.12 427.73,121.51 423.01,119.42"/>
    </edge>
    <edge id=":V0028_8" function="internal">
        <lane id=":V0028_8_0" index="0" speed="5.46" length="6.28" shape="429.68,116.89 429.50,117.94 427.77,118.08 424.59,116.64"/>
    </edge>
    <edge id=":V0029_0" function="internal">
        <lane id=":V0029_0_0" index="0" speed="8.50" length="9.41" shape="515.12,294.39 516.60,297.22 518.10,299.29 519.62,300.60 521.18,301.16"/>
    </edge>
    <edge id=":V0029_1" function="internal">
        <lane id=":V0029_1_0" index="0" speed="8.50" length="11.99" shape="509.27,299.76 521.18,301.16"/>
    </edge>
    <edge id=":V0030_0" function="internal">
        <lane id=":V0030_0_0" index="0" speed="3.65" length="2.34" shape="578.13,328.07 578.17,326.63 578.64,325.87"/>
    </edge>
    <edge id=":V0030_2" function="internal">
        <lane id=":V0030_2_0" index="0" speed="3.65" length="2.34" shape="578.64,325.87 579.53,325.78 580.84,326.38"/>
    </edge>
    <edge id=":V0030_1" function="internal">
        <lane id=":V0030_1_0" index="0" speed="5.13" length="7.74" shape="588.47,327.70 580.84,326.38"/>
    </edge>
    <edge id=":V0032_0" function="internal">
        <lane id=":V0032_0_0" index="0" speed="15.00" length="0.90" shape="626.16,416.64 626.61,415.86"/>
    </edge>
    <edge id=":V0032_1" function="internal">
        <lane id=":V0032_1_0" index="0" speed="16.50" length="12.02" shape="626.16,416.64 622.75,428.16"/>
        <lane id=":V0032_1_1" index="1" speed="16.50" length="12.02" shape="623.09,415.73 619.69,427.26"/>
        <lane id=":V0032_1_2" index="2" speed="16.50" length="12.02" shape="620.02,414.83 616.62,426.35"/>
    </edge>
    <edge id=":V0032_4" function="internal">
        <lane id=":V0032_4_0" index="0" speed="7.74" length="19.76" shape="620.02,414.83 617.12,417.40 612.08,417.24 606.70,415.16 602.77,411.95"/>
        <lane id=":V0032_4_1" index="1" speed="7.30" length="17.38" shape="620.02,414.83 617.54,416.74 613.28,415.84 608.72,413.23 605.35,410.05"/>
    </edge>
    <edge id=":V0032_6" function="internal">
        <lane id=":V0032_6_0" index="0" speed="6.06" length="9.07" shape="598.24,421.06 600.44,419.72 601.50,418.07 601.42,416.12 600.20,413.85"/>
    </edge>
    <edge id=":V0032_7" function="internal">
        <lane id=":V0032_7_0" index="0" speed="21.50" length="28.97" shape="598.24,421.06 607.62,418.13 615.67,417.07 622.10,416.71 626.61,415.86"/>
    </edge>
    <edge id=":V0032_8" function="internal">
        <lane id=":V0032_8_0" index="0" speed="8.23" length="23.03" shape="599.51,424.00 605.57,422.46 612.67,422.17 618.23,423.62 619.69,427.26"/>
        <lane id=":V0032_8_1" index="1" speed="7.15" length="16.98" shape="600.77,426.95 605.44,425.47 610.91,424.54 615.27,424.65 616.62,426.35"/>
    </edge>
    <edge id=":V0033_0" function="internal">
        <lane id=":V0033_0_0" index="0" speed="9.61" length="13.93" shape="525.51,479.46 525.66,484.63 526.24,488.53 527.22,491.19 528.62,492.58"/>
    </edge>
    <edge id=":V0033_1" function="internal">
        <lane id=":V0033_1_0" index="0" speed="15.50" length="17.54" shape="514.50,482.28 519.40,485.18 522.83,488.04 525.62,490.59 528.62,492.58"/>
    </edge>
    <edge id=":V0034_0" function="internal">
        <lane id=":V0034_0_0" index="0" speed="8.76" length="14.26" shape="458.45,487.98 460.12,486.49 461.00,483.77 461.11,479.82 460.44,474.65"/>
    </edge>
    <edge id=":V0034_1" function="internal">
        <lane id=":V0034_1_0" index="0" speed="9.50" length="12.02" shape="458.45,487.98 460.76,485.90 461.81,483.06 463.11,480.11 466.15,477.71"/>
        <lane id=":V0034_1_1" index="1" speed="9.50" length="12.02" shape="458.45,487.98 461.04,486.33 462.66,484.43 464.42,482.49 467.41,480.66"/>
        <lane id=":V0034_1_2" index="2" speed="9.50" length="12.02" shape="458.45,487.98 468.67,483.60"/>
    </edge>
    <edge id=":V0036_0" function="internal">
        <lane id=":V0036_0_0" index="0" speed="23.00" length="12.67" shape="278.26,220.22 279.31,223.76 279.29,226.40 279.28,229.05 280.33,232.59"/>
        <lane id=":V0036_0_1" index="1" speed="23.00" length="12.67" shape="275.34,221.53 276.39,225.07 276.38,227.72 276.36,230.36 277.41,233.90"/>
    </edge>
    <edge id=":V0036_2" function="internal">
        <lane id=":V0036_2_0" index="0" speed="11.12" length="12.87" shape="275.34,221.53 275.81,223.68 275.58,226.45 274.64,229.85 272.99,233.89"/>
        <lane id=":V0036_2_1" index="1" speed="9.93" length="10.16" shape="272.42,222.85 272.67,224.33 272.36,226.44 271.50,229.18 270.08,232.55"/>
    </edge>
    <edge id=":V0038_0" function="internal">
        <lane id=":V0038_0_0" index="0" speed="8.19" length="12.41" shape="159.24,212.80 155.30,213.95 152.47,215.52 150.77,217.50 150.18,219.90"/>
    </edge>
    <edge id=":V0038_1" function="internal">
        <lane id=":V0038_1_0" index="0" speed="14.95" length="14.40" shape="159.24,212.80 145.15,215.77"/>
        <lane id=":V0038_1_1" index="1" speed="14.95" length="14.40" shape="158.58,209.67 144.49,212.64"/>
    </edge>
    <edge id=":V0038_3" function="internal">
        <lane id=":V0038_3_0" index="0" speed="18.00" length="14.83" shape="153.54,205.54 152.99,210.19 151.85,213.61 150.72,216.58 150.18,219.90"/>
    </edge>
    <edge id=":V0038_4" function="internal">
        <lane id=":V0038_4_0" index="0" speed="7.44" length="10.09" shape="150.34,205.50 149.95,208.16 148.85,210.24 147.03,211.73 144.49,212.64"/>
    </edge>
    <edge id=":V0039_0" function="internal">
        <lane id=":V0039_0_0" index="0" speed="8.36" length="10.49" shape="571.01,207.63 569.24,207.14 567.05,207.45 564.44,208.58 561.40,210.50"/>
        <lane id=":V0039_0_1" index="1" speed="9.62" length="14.12" shape="572.60,204.85 569.94,203.99 566.88,204.21 563.41,205.52 559.54,207.90"/>
    </edge>
    <edge id=":V0039_2" function="internal">
        <lane id=":V0039_2_0" index="0" speed="11.50" length="16.38" shape="574.18,202.07 569.49,200.54 565.78,200.96 562.08,201.37 557.38,199.84"/>
        <lane id=":V0039_2_1" index="1" speed="11.50" length="16.38" shape="574.18,202.07 569.85,200.17 566.58,199.57 563.30,198.96 558.97,197.06"/>
        <lane id=":V0039_2_2" index="2" speed="11.50" length="16.38" shape="574.18,202.07 560.56,194.29"/>
    </edge>
    <edge id=":V0039_5" function="internal">
        <lane id=":V0039_5_0" index="0" speed="20.00" length="17.34" shape="571.60,195.29 569.00,197.78 566.70,200.78 563.84,204.19 559.54,207.90"/>
        <lane id=":V0039_5_1" index="1" speed="20.00" length="17.34" shape="571.60,195.29 557.67,205.31"/>
    </edge>
    <edge id=":V0039_7" function="internal">
        <lane id=":V0039_7_0" index="0" speed="9.42" length="13.51" shape="571.60,195.29 568.20,197.28 564.96,198.24 561.88,198.17 558.97,197.06"/>
        <lane id=":V0039_7_1" index="1" speed="8.80" length="11.70" shape="571.60,195.29 569.37,196.34 566.78,196.52 563.85,195.83 560.56,194.29"/>
    </edge>
    <edge id=":V0040_0" function="internal">
        <lane id=":V0040_0_0" index="0" speed="7.19" length="11.49" shape="404.74,170.05 403.77,167.73 401.88,166.33 399.06,165.84 395.33,166.27"/>
    </edge>
    <edge id=":V0040_1" function="internal">
        <lane id=":V0040_1_0" index="0" speed="16.00" length="17.86" shape="404.74,170.05 403.60,166.59 401.85,163.11 399.96,158.89 398.41,153.22"/>
        <lane id=":V0040_1_1" index="1" speed="16.00" length="17.86" shape="404.74,170.05 401.56,152.65"/>
    </edge>
    <edge id=":V0040_3" function="internal">
        <lane id=":V0040_3_0" index="0" speed="16.00" length="5.11" shape="398.36,159.09 397.03,159.88 396.51,161.11 396.00,162.35 394.66,163.14"/>
        <lane id=":V0040_3_1" index="1" speed="16.00" length="5.11" shape="398.36,159.09 394.00,160.01"/>
    </edge>
    <edge id=":V0040_5" function="internal">
        <lane id=":V0040_5_0" index="0" speed="5.83" length="7.19" shape="398.36,159.09 401.56,152.65"/>
    </edge>
    <edge id=":V0041_0" function="internal">
        <lane id=":V0041_0_0" index="0" speed="4.87" length="8.87" shape="349.66,77.53 352.50,78.95 353.76,79.05 353.43,77.83 351.51,75.30"/>
    </edge>
    <edge id=":V0041_1" function="internal">
        <lane id=":V0041_1_0" index="0" speed="6.70" length="10.30" shape="349.66,77.53 346.65,76.20 344.17,75.96 342.22,76.81 340.82,78.75"/>
    </edge>
    <edge id=":V0041_2" function="internal">
        <lane id=":V0041_2_0" index="0" speed="15.00" length="13.86" shape="349.66,77.53 337.86,70.79"/>
        <lane id=":V0041_2_1" index="1" speed="15.00" length="13.86" shape="351.73,75.03 339.45,68.01"/>
    </edge>
    <edge id=":V0041_4" function="internal">
        <lane id=":V0041_4_0" index="0" speed="7.82" length="9.01" shape="349.75,66.98 349.16,69.02 349.26,71.09 350.04,73.18 351.51,75.30"/>
    </edge>
    <edge id=":V0041_5" function="internal">
        <lane id=":V0041_5_0" index="0" speed="22.50" length="14.86" shape="349.75,66.98 347.35,71.01 344.91,73.68 342.66,75.94 340.82,78.75"/>
    </edge>
    <edge id=":V0041_6" function="internal">
        <lane id=":V0041_6_0" index="0" speed="6.32" length="9.04" shape="346.84,65.64 345.48,67.75 343.79,68.85 341.78,68.93 339.45,68.01"/>
    </edge>
    <edge id=":V0042_0" function="internal">
        <lane id=":V0042_0_0" index="0" speed="6.64" length="10.72" shape="481.00,264.38 478.42,266.68 477.18,268.92 477.29,271.08 478.75,273.17"/>