<configuration><input><net-file value="sim_24.net.xml" /><route-files value="sim_24.rou.xml" /></input><time><begin value="0" /></time></configuration>