<configuration><input><net-file value="sim_23.net.xml" /><route-files value="sim_23.rou.xml" /></input><time><begin value="0" /></time></configuration>