<edges><edge id="E0007" from="V0002" to="V0005" numLanes="3" speed="21.0" /><edge id="E0011" from="V0002" to="V0007" numLanes="1" speed="22.0" /><edge id="E0031" from="V0009" to="V0001" numLanes="1" speed="24.0" /><edge id="E0041" from="V0001" to="V0011" numLanes="2" speed="17.0" /><edge id="E0051" from="V0012" to="V0008" numLanes="1" speed="11.0" /><edge id="E0054" from="V0003" to="V0014" numLanes="1" speed="26.0" /><edge id="E0057" from="V0010" to="V0014" numLanes="2" speed="24.0" /><edge id="E0062" from="V0002" to="V0016" numLanes="3" speed="22.0" /><edge id="E0068" from="V0017" to="V0009" numLanes="2" speed="11.0" /><edge id="E0088" from="V0022" to="V0003" numLanes="3" speed="22.0" /><edge id="E0091" from="V0022" to="V0008" numLanes="2" speed="21.0" /><edge id="E0093" from="V0013" to="V0023" numLanes="3" speed="7.0" /><edge id="E0096" from="V0024" to="V0013" numLanes="2" speed="15.0" /><edge id="E0100" from="V0025" to="V0009" numLanes="2" speed="15.0" /><edge id="E0101" from="V0010" to="V0025" numLanes="1" speed="18.0" /><edge id="E0103" from="V0025" to="V0017" numLanes="2" speed="17.0" /><edge id="E0104" from="V0026" to="V0015" numLanes="2" speed="15.0" /><edge id="E0105" from="V0018" to="V0026" numLanes="3" speed="21.0" /><edge id="E0110" from="V0008" to="V0028" numLanes="2" speed="26.0" /><edge id="E0115" from="V0028" to="V0012" numLanes="3" speed="19.0" /><edge id="E0114" from="V0015" to="V0029" numLanes="2" speed="23.0" /><edge id="E0119" from="V0029" to="V0018" numLanes="1" speed="12.0" /><edge id="E0118" from="V0016" to="V0030" numLanes="3" speed="18.0" /><edge id="E0124" from="V0031" to="V0016" numLanes="2" speed="10.0" /><edge id="E0125" from="V0018" to="V0031" numLanes="3" speed="7.0" /><edge id="E0127" from="V0031" to="V0002" numLanes="1" speed="18.0" /><edge id="E0129" from="V0019" to="V0032" numLanes="3" speed="20.0" /><edge id="E0130" from="V0019" to="V0033" numLanes="3" speed="21.0" /><edge id="E0138" from="V0003" to="V0035" numLanes="2" speed="21.0" /><edge id="E0140" from="V0035" to="V0020" numLanes="3" speed="17.0" /><edge id="E0152" from="V0038" to="V0010" numLanes="2" speed="16.0" /><edge id="E0153" from="V0014" to="V0038" numLanes="2" speed="24.0" /><edge id="E0156" from="V0039" to="V0021" numLanes="3" speed="6.0" /><edge id="E0157" from="V0005" to="V0039" numLanes="1" speed="25.0" /><edge id="E0159" from="V0039" to="V0026" numLanes="3" speed="15.0" /><edge id="E0160" from="V0040" to="V0013" numLanes="3" speed="15.0" /><edge id="E0161" from="V0023" to="V0040" numLanes="1" speed="13.0" /><edge id="E0163" from="V0040" to="V0012" numLanes="2" speed="19.0" /><edge id="E0162" from="V0012" to="V0041" numLanes="2" speed="15.0" /><edge id="E0164" from="V0041" to="V0022" numLanes="2" speed="15.0" /><edge id="E0165" from="V0008" to="V0041" numLanes="2" speed="22.0" /><edge id="E0167" from="V0041" to="V0024" numLanes="1" speed="23.0" /><edge id="E0166" from="V0023" to="V0042" numLanes="2" speed="18.0" /><edge id="E0169" from="V0015" to="V0042" numLanes="2" speed="19.0" /><edge id="E0170" from="V0003" to="V0043" numLanes="1" speed="12.0" /><edge id="E0172" from="V0043" to="V0024" numLanes="2" speed="15.0" /><edge id="E0173" from="V0035" to="V0043" numLanes="3" speed="25.0" /><edge id="E0176" from="V0044" to="V0008" numLanes="3" speed="18.0" /><edge id="E0177" from="V0021" to="V0044" numLanes="3" speed="23.0" /><edge id="E0179" from="V0044" to="V0028" numLanes="2" speed="25.0" /><edge id="E0178" from="V0028" to="V0045" numLanes="1" speed="21.0" /><edge id="E0180" from="V0045" to="V0015" numLanes="3" speed="20.0" /><edge id="E0183" from="V0045" to="V0040" numLanes="1" speed="17.0" /><edge id="E0187" from="V0046" to="V0023" numLanes="1" speed="26.0" /><edge id="E0188" from="V0047" to="V0030" numLanes="3" speed="18.0" /><edge id="E0189" from="V0016" to="V0047" numLanes="2" speed="12.0" /><edge id="E0191" from="V0047" to="V0032" numLanes="3" speed="7.0" /><edge id="E0190" from="V0005" to="V0048" numLanes="2" speed="11.0" /><edge id="E0192" from="V0048" to="V0031" numLanes="3" speed="15.0" /><edge id="E0193" from="V0002" to="V0048" numLanes="2" speed="24.0" /><edge id="E0195" from="V0048" to="V0039" numLanes="3" speed="17.0" /><edge id="E0194" from="V0032" to="V0049" numLanes="3" speed="26.0" /><edge id="E0197" from="V0033" to="V0049" numLanes="1" speed="15.0" /><edge id="E0199" from="V0049" to="V0007" numLanes="3" speed="25.0" /><edge id="E0198" from="V0032" to="V0050" numLanes="1" speed="23.0" /><edge id="E0200" from="V0050" to="V0002" numLanes="1" speed="16.0" /><edge id="E0201" from="V0007" to="V0050" numLanes="3" speed="23.0" /><edge id="E0203" from="V0050" to="V0047" numLanes="3" speed="11.0" /><edge id="E0204" from="V0051" to="V0033" numLanes="2" speed="16.0" /><edge id="E0205" from="V0034" to="V0051" numLanes="3" speed="13.0" /><edge id="E0207" from="V0051" to="V0019" numLanes="1" speed="23.0" /><edge id="E0212" from="V0053" to="V0017" numLanes="1" speed="9.0" /><edge id="E0214" from="V0038" to="V0054" numLanes="1" speed="12.0" /><edge id="E0216" from="V0054" to="V0025" numLanes="3" speed="20.0" /><edge id="E0217" from="V0010" to="V0054" numLanes="3" speed="26.0" /><edge id="E0219" from="V0054" to="V0053" numLanes="1" speed="13.0" /><edge id="E0218" from="V0042" to="V0055" numLanes="1" speed="5.0" /><edge id="E0223" from="V0055" to="V0029" numLanes="1" speed="5.0" /><edge id="E0222" from="V0026" to="V0056" numLanes="1" speed="25.0" /><edge id="E0224" from="V0056" to="V0044" numLanes="2" speed="10.0" /><edge id="E0225" from="V0021" to="V0056" numLanes="1" speed="9.0" /><edge id="E0226" from="V0034" to="V0057" numLanes="1" speed="17.0" /><edge id="E0231" from="V0057" to="V0051" numLanes="2" speed="6.0" /><edge id="E0232" from="V0058" to="V0052" numLanes="3" speed="25.0" /><edge id="E0233" from="V0053" to="V0058" numLanes="1" speed="26.0" /><edge id="E0235" from="V0058" to="V0046" numLanes="2" speed="12.0" /><edge id="E0234" from="V0052" to="V0059" numLanes="1" speed="9.0" /><edge id="E0236" from="V0059" to="V0011" numLanes="2" speed="18.0" /><edge id="E0239" from="V0059" to="V0057" numLanes="2" speed="20.0" /><edge id="E0238" from="V0042" to="V0060" numLanes="2" speed="23.0" /><edge id="E0241" from="V0046" to="V0060" numLanes="3" speed="16.0" /><edge id="E0243" from="V0060" to="V0055" numLanes="2" speed="14.0" /><edge id="E0242" from="V0057" to="V0061" numLanes="2" speed="24.0" /><edge id="E0244" from="V0061" to="V0046" numLanes="3" speed="24.0" /><edge id="E0245" from="V0060" to="V0061" numLanes="1" speed="5.0" /><edge id="E0247" from="V0061" to="V0052" numLanes="2" speed="16.0" /><edge id="83a0c53b-ef8f-4363-ab92-e5143bd93bac_1" from="V0041" to="V0047" numLanes="1" speed="13.9" /><edge id="54b1303f-f5de-4fdf-8bb2-1302a62589a2_2" from="V0005" to="V0054" numLanes="1" speed="13.9" /><edge id="7ef43029-0c35-4ef0-9c1d-c6dd1f5118e0_2" from="V0032" to="V0015" numLanes="3" speed="13.9" /><edge id="e4f9d556-0011-4fcf-a638-307fdc33ace2_2" from="V0056" to="V0038" numLanes="2" speed="13.9" /><edge id="9bc5e619-0d26-409b-b2c8-458973d03305_3" from="V0010" to="V0045" numLanes="3" speed="13.9" /><edge id="799463fc-2278-4151-a31b-241f68501268_4" from="V0030" to="V0047" numLanes="1" speed="13.9" /><edge id="f5000412-8d34-41c0-89fb-9e5b8ce8eb98_3" from="V0061" to="V0015" numLanes="1" speed="13.9" /><edge id="527f7d04-a56e-45f0-8ad8-6e8f10b890d5_2" from="cdf5e18a-7c94-428c-b8e6-cf0048981a2d_1" to="V0045" numLanes="3" speed="13.9" /><edge id="b2dd2cb6-80c3-4150-ba4d-00d0c686929a_2" from="V0056" to="V0039" numLanes="3" speed="13.9" /></edges>