<?xml version="1.0" encoding="UTF-8"?>

<!-- generated on 2023-06-26 02:05:22 by Eclipse SUMO netconvert Version 1.16.0
<configuration xmlns:xsi="http://www.w3.org/2001/XMLSchema-instance" xsi:noNamespaceSchemaLocation="http://sumo.dlr.de/xsd/netconvertConfiguration.xsd">

    <input>
        <node-files value="data/simulationConfigurations/tests/11\11.nod.xml"/>
        <edge-files value="data/simulationConfigurations/tests/11\11.edg.xml"/>
    </input>

    <output>
        <output-file value="data/simulationConfigurations/tests/11\11.net.xml"/>
    </output>

</configuration>
-->

<net version="1.16" junctionCornerDetail="5" limitTurnSpeed="5.50" xmlns:xsi="http://www.w3.org/2001/XMLSchema-instance" xsi:noNamespaceSchemaLocation="http://sumo.dlr.de/xsd/net_file.xsd">

    <location netOffset="-2.57,-121.68" convBoundary="0.00,0.00,882.41,858.56" origBoundary="2.57,121.68,884.99,980.24" projParameter="!"/>

    <edge id=":V0001_0" function="internal">
        <lane id=":V0001_0_0" index="0" speed="9.34" length="40.87" shape="117.52,85.26 118.11,100.56 119.41,105.85 121.41,101.12 124.11,86.38"/>
        <lane id=":V0001_0_1" index="1" speed="6.90" length="21.30" shape="117.52,85.26 117.83,93.23 118.50,95.99 119.54,93.53 120.95,85.84"/>
    </edge>
    <edge id=":V0001_2" function="internal">
        <lane id=":V0001_2_0" index="0" speed="11.05" length="35.03" shape="117.52,85.26 118.24,74.65 121.13,66.94 126.85,63.08 136.06,64.01"/>
        <lane id=":V0001_2_1" index="1" speed="10.12" length="29.18" shape="120.72,85.80 121.18,76.78 123.26,70.02 127.65,66.46 135.04,67.04"/>
        <lane id=":V0001_2_2" index="2" speed="9.51" length="25.58" shape="120.72,85.80 121.21,78.02 123.24,72.32 127.34,69.43 134.03,70.07"/>
    </edge>
    <edge id=":V0001_5" function="internal">
        <lane id=":V0001_5_0" index="0" speed="10.64" length="32.57" shape="120.72,85.80 121.21,75.58 123.42,67.79 128.12,63.58 136.03,64.11"/>
        <lane id=":V0001_5_1" index="1" speed="10.09" length="29.12" shape="120.72,85.80 121.18,76.81 123.25,70.05 127.63,66.50 135.01,67.14"/>
        <lane id=":V0001_5_2" index="2" speed="9.47" length="25.49" shape="120.72,85.80 121.22,78.05 123.26,72.36 127.34,69.49 133.99,70.18"/>
    </edge>
    <edge id=":V0001_8" function="internal">
        <lane id=":V0001_8_0" index="0" speed="7.77" length="20.83" shape="120.72,85.80 121.45,79.43 123.66,74.48 127.13,72.29 131.64,74.21"/>
    </edge>
    <edge id=":V0001_9" function="internal">
        <lane id=":V0001_9_0" index="0" speed="5.44" length="11.98" shape="120.72,85.80 122.89,82.81 124.97,81.86 126.98,82.96 128.92,86.11"/>
    </edge>
    <edge id=":V0002_0" function="internal">
        <lane id=":V0002_0_0" index="0" speed="6.42" length="17.07" shape="346.29,831.78 344.31,825.97 342.78,824.13 341.69,826.26 341.05,832.37"/>
        <lane id=":V0002_0_1" index="1" speed="4.31" length="6.57" shape="346.29,831.78 345.53,829.54 344.94,828.83 344.52,829.65 344.28,832.01"/>
    </edge>
    <edge id=":V0002_2" function="internal">
        <lane id=":V0002_2_0" index="0" speed="4.17" length="4.81" shape="346.29,831.78 346.92,833.44 347.60,834.25 348.35,834.20 349.16,833.28"/>
        <lane id=":V0002_2_1" index="1" speed="6.53" length="14.22" shape="343.07,832.14 344.85,836.68 346.91,838.67 349.25,838.10 351.87,834.99"/>
        <lane id=":V0002_2_2" index="2" speed="7.42" length="18.82" shape="343.07,832.14 345.46,838.34 348.18,841.17 351.22,840.62 354.58,836.69"/>
    </edge>
    <edge id=":V0002_5" function="internal">
        <lane id=":V0002_5_0" index="0" speed="8.29" length="23.79" shape="339.85,832.50 342.81,839.94 346.28,843.14 350.27,842.10 354.78,836.81"/>
    </edge>
    <edge id=":V0003_0" function="internal">
        <lane id=":V0003_0_0" index="0" speed="12.09" length="8.96" shape="378.71,143.09 381.21,143.64 383.00,143.45 384.79,142.77 387.31,141.85"/>
        <lane id=":V0003_0_1" index="1" speed="13.30" length="10.91" shape="377.72,146.13 380.77,146.85 382.97,146.71 385.17,145.98 388.24,144.91"/>
    </edge>
    <edge id=":V0003_2" function="internal">
        <lane id=":V0003_2_0" index="0" speed="7.50" length="5.63" shape="376.72,149.17 383.18,147.93"/>
        <lane id=":V0003_2_1" index="1" speed="7.50" length="5.63" shape="376.72,149.17 378.09,149.46 379.09,149.52 380.02,149.71 381.16,150.41"/>
    </edge>
    <edge id=":V0003_4" function="internal">
        <lane id=":V0003_4_0" index="0" speed="7.67" length="9.52" shape="379.40,148.27 380.67,147.37 383.48,146.33 386.46,145.42 388.24,144.91"/>
    </edge>
    <edge id=":V0003_5" function="internal">
        <lane id=":V0003_5_0" index="0" speed="3.50" length="2.77" shape="379.40,148.27 381.16,150.41"/>
    </edge>
    <edge id=":V0003_6" function="internal">
        <lane id=":V0003_6_0" index="0" speed="13.72" length="8.62" shape="379.36,146.62 381.42,145.12 383.31,145.00 385.46,145.26 388.24,144.91"/>
        <lane id=":V0003_6_1" index="1" speed="12.55" length="8.62" shape="381.74,148.76 383.45,147.62 385.05,147.73 386.85,148.16 389.17,147.98"/>
    </edge>
    <edge id=":V0003_8" function="internal">
        <lane id=":V0003_8_0" index="0" speed="3.48" length="1.76" shape="381.74,148.76 381.16,150.41"/>
    </edge>
    <edge id=":V0004_0" function="internal">
        <lane id=":V0004_0_0" index="0" speed="5.16" length="5.98" shape="584.80,472.68 585.58,472.34 586.62,470.89 587.61,469.16 588.26,467.97"/>
    </edge>
    <edge id=":V0004_1" function="internal">
        <lane id=":V0004_1_0" index="0" speed="8.07" length="17.46" shape="582.68,475.07 587.15,479.68 589.40,483.59 589.42,486.79 587.22,489.28"/>
    </edge>
    <edge id=":V0004_2" function="internal">
        <lane id=":V0004_2_0" index="0" speed="17.00" length="15.56" shape="580.05,481.15 588.26,467.97"/>
        <lane id=":V0004_2_1" index="1" speed="17.00" length="15.56" shape="582.74,482.88 590.99,469.65"/>
    </edge>
    <edge id=":V0004_4" function="internal">
        <lane id=":V0004_4_0" index="0" speed="3.84" length="4.62" shape="582.74,482.88 585.49,486.59"/>
        <lane id=":V0004_4_1" index="1" speed="3.56" length="3.70" shape="582.74,482.88 582.11,484.02 582.07,484.57 582.62,484.53 583.75,483.90"/>
    </edge>
    <edge id=":V0005_0" function="internal">
        <lane id=":V0005_0_0" index="0" speed="13.11" length="52.13" shape="835.47,5.88 853.95,0.78 869.57,-2.05 880.16,-1.35 883.58,4.15"/>
    </edge>
    <edge id=":V0005_1" function="internal">
        <lane id=":V0005_1_0" index="0" speed="10.59" length="47.10" shape="836.40,8.94 847.58,9.90 853.23,18.44 852.85,30.55 845.95,42.17"/>
        <lane id=":V0005_1_1" index="1" speed="9.65" length="38.78" shape="837.33,12.01 846.34,12.85 850.53,20.01 849.75,30.11 843.85,39.75"/>
    </edge>
    <edge id=":V0005_3" function="internal">
        <lane id=":V0005_3_0" index="0" speed="7.00" length="62.44" shape="828.34,21.86 848.95,10.56 866.94,2.30 879.44,-0.61 883.58,4.15"/>
    </edge>
    <edge id=":V0005_4" function="internal">
        <lane id=":V0005_4_0" index="0" speed="7.54" length="25.06" shape="832.61,26.79 840.28,25.81 844.71,27.65 845.90,32.30 843.85,39.75"/>
    </edge>
    <edge id=":V0005_5" function="internal">
        <lane id=":V0005_5_0" index="0" speed="6.38" length="17.40" shape="849.12,44.85 852.26,39.28 852.77,36.98 850.67,37.94 845.95,42.17"/>
        <lane id=":V0005_5_1" index="1" speed="9.81" length="43.95" shape="851.83,46.56 859.75,32.48 861.06,26.65 855.76,29.08 843.85,39.75"/>
    </edge>
    <edge id=":V0005_7" function="internal">
        <lane id=":V0005_7_0" index="0" speed="11.32" length="54.76" shape="851.83,46.56 863.45,28.07 873.87,12.52 881.21,3.38 883.58,4.15"/>
    </edge>
    <edge id=":V0005_8" function="internal">
        <lane id=":V0005_8_0" index="0" speed="6.13" length="15.91" shape="848.71,44.59 851.64,39.51 852.16,37.42 850.26,38.30 845.95,42.17"/>
        <lane id=":V0005_8_1" index="1" speed="9.73" length="43.37" shape="851.42,46.30 859.39,32.46 860.79,26.75 855.61,29.19 843.85,39.75"/>
    </edge>
    <edge id=":V0005_10" function="internal">
        <lane id=":V0005_10_0" index="0" speed="11.34" length="54.77" shape="851.42,46.30 863.20,27.92 873.74,12.48 881.17,3.41 883.58,4.15"/>
    </edge>
    <edge id=":V0006_0" function="internal">
        <lane id=":V0006_0_0" index="0" speed="9.23" length="21.84" shape="829.84,502.63 828.31,508.25 825.16,511.67 820.40,512.88 814.02,511.89"/>
    </edge>
    <edge id=":V0006_1" function="internal">
        <lane id=":V0006_1_0" index="0" speed="6.32" length="16.06" shape="823.71,505.16 825.23,508.21 823.13,510.76 818.91,512.19 814.02,511.89"/>
    </edge>
    <edge id=":V0006_2" function="internal">
        <lane id=":V0006_2_0" index="0" speed="5.46" length="10.15" shape="814.34,517.56 817.27,515.97 818.20,514.50 817.11,513.14 814.02,511.89"/>
    </edge>
    <edge id=":V0007_0" function="internal">
        <lane id=":V0007_0_0" index="0" speed="6.00" length="35.13" shape="44.96,831.46 34.25,838.82 31.15,842.19 35.68,841.54 47.82,836.90"/>
    </edge>
    <edge id=":V0007_1" function="internal">
        <lane id=":V0007_1_0" index="0" speed="6.50" length="28.75" shape="42.60,828.27 35.64,835.90 34.19,839.88 38.25,840.21 47.82,836.90"/>
    </edge>
    <edge id=":V0007_2" function="internal">
        <lane id=":V0007_2_0" index="0" speed="9.00" length="44.17" shape="6.65,846.94 8.78,849.17 16.36,848.23 29.37,844.14 47.82,836.90"/>
    </edge>
    <edge id=":V0008_0" function="internal">
        <lane id=":V0008_0_0" index="0" speed="7.07" length="19.64" shape="821.33,297.67 825.61,300.79 827.04,305.28 825.56,309.57 821.14,312.09"/>
        <lane id=":V0008_0_1" index="1" speed="6.83" length="18.20" shape="820.31,300.70 826.26,303.21 828.29,305.42 826.38,307.33 820.55,308.95"/>
        <lane id=":V0008_0_2" index="2" speed="5.54" length="11.33" shape="820.31,300.70 823.90,302.23 825.03,303.59 823.72,304.78 819.96,305.80"/>
    </edge>
    <edge id=":V0009_0" function="internal">
        <lane id=":V0009_0_0" index="0" speed="12.28" length="39.47" shape="149.89,435.01 137.98,436.41 129.12,434.90 123.56,429.42 121.54,418.92"/>
        <lane id=":V0009_0_1" index="1" speed="11.22" length="32.72" shape="148.40,432.04 138.49,433.21 131.10,431.99 126.44,427.50 124.74,418.88"/>
    </edge>
    <edge id=":V0009_2" function="internal">
        <lane id=":V0009_2_0" index="0" speed="9.03" length="31.21" shape="148.40,432.04 139.79,431.38 133.88,426.89 131.97,420.15 135.38,412.74"/>
        <lane id=":V0009_2_1" index="1" speed="8.44" length="27.07" shape="148.40,432.04 141.03,431.40 136.13,427.36 134.70,421.37 137.76,414.89"/>
        <lane id=":V0009_2_2" index="2" speed="7.82" length="22.98" shape="148.40,432.04 142.26,431.43 138.37,427.84 137.42,422.60 140.13,417.03"/>
    </edge>
    <edge id=":V0009_5" function="internal">
        <lane id=":V0009_5_0" index="0" speed="6.09" length="15.13" shape="148.40,432.04 143.76,431.46 141.45,429.72 141.45,426.82 143.77,422.77"/>
    </edge>
    <edge id=":V0011_0" function="internal">
        <lane id=":V0011_0_0" index="0" speed="6.60" length="7.19" shape="304.14,668.07 302.69,669.31 301.82,670.75 301.52,672.42 301.79,674.30"/>
        <lane id=":V0011_0_1" index="1" speed="8.12" length="11.30" shape="302.41,665.39 300.13,667.32 298.75,669.60 298.28,672.21 298.71,675.17"/>
    </edge>
    <edge id=":V0011_2" function="internal">
        <lane id=":V0011_2_0" index="0" speed="13.50" length="14.97" shape="302.41,665.39 289.83,673.50"/>
    </edge>
    <edge id=":V0011_3" function="internal">
        <lane id=":V0011_3_0" index="0" speed="13.00" length="12.01" shape="295.55,663.98 296.99,667.23 298.67,669.14 300.35,671.06 301.79,674.30"/>
        <lane id=":V0011_3_1" index="1" speed="13.00" length="12.01" shape="292.47,664.85 293.91,668.10 295.59,670.01 297.28,671.93 298.71,675.17"/>
        <lane id=":V0011_3_2" index="2" speed="13.00" length="12.01" shape="292.47,664.85 295.63,676.04"/>
    </edge>
    <edge id=":V0011_6" function="internal">
        <lane id=":V0011_6_0" index="0" speed="7.58" length="9.76" shape="292.47,664.85 292.93,667.60 292.64,669.95 291.61,671.92 289.83,673.50"/>
    </edge>
    <edge id=":V0012_0" function="internal">
        <lane id=":V0012_0_0" index="0" speed="5.53" length="9.46" shape="363.89,276.34 366.31,278.01 368.09,278.16 369.24,276.79 369.75,273.89"/>
    </edge>
    <edge id=":V0012_1" function="internal">
        <lane id=":V0012_1_0" index="0" speed="15.50" length="14.88" shape="361.76,278.73 372.89,288.62"/>
    </edge>
    <edge id=":V0012_2" function="internal">
        <lane id=":V0012_2_0" index="0" speed="8.50" length="15.06" shape="372.18,288.89 371.85,285.51 370.91,282.36 370.00,278.73 369.75,273.89"/>
        <lane id=":V0012_2_1" index="1" speed="8.50" length="15.06" shape="372.18,288.89 372.94,274.05"/>
    </edge>
    <edge id=":V0012_4" function="internal">
        <lane id=":V0012_4_0" index="0" speed="2.74" length="1.13" shape="372.18,288.89 372.24,288.55 372.38,288.39 372.59,288.41 372.89,288.62"/>
    </edge>
    <edge id=":V0013_0" function="internal">
        <lane id=":V0013_0_0" index="0" speed="6.21" length="6.72" shape="713.75,261.54 714.59,261.44 715.64,260.64 716.89,259.16 718.34,256.98"/>
        <lane id=":V0013_0_1" index="1" speed="7.75" length="10.93" shape="712.73,264.57 714.71,264.69 716.76,263.74 718.88,261.73 721.07,258.66"/>
    </edge>
    <edge id=":V0013_2" function="internal">
        <lane id=":V0013_2_0" index="0" speed="10.50" length="10.36" shape="712.73,264.57 715.78,265.07 718.00,264.65 720.21,264.23 723.26,264.73"/>
        <lane id=":V0013_2_1" index="1" speed="10.50" length="10.36" shape="712.73,264.57 722.25,267.76"/>
    </edge>
    <edge id=":V0013_4" function="internal">
        <lane id=":V0013_4_0" index="0" speed="16.50" length="15.60" shape="707.67,268.20 710.48,264.59 713.01,262.59 715.53,260.59 718.34,256.98"/>
        <lane id=":V0013_4_1" index="1" speed="16.50" length="15.60" shape="710.39,269.88 713.20,266.27 715.73,264.27 718.26,262.27 721.07,258.66"/>
    </edge>
    <edge id=":V0013_6" function="internal">
        <lane id=":V0013_6_0" index="0" speed="7.70" length="10.79" shape="713.11,271.56 715.00,269.19 717.15,267.77 719.57,267.29 722.25,267.76"/>
    </edge>
    <edge id=":V0014_0" function="internal">
        <lane id=":V0014_0_0" index="0" speed="10.50" length="32.64" shape="410.15,397.17 403.14,395.32 395.97,394.20 387.83,394.12 377.93,395.40"/>
    </edge>
    <edge id=":V0014_1" function="internal">
        <lane id=":V0014_1_0" index="0" speed="12.00" length="35.49" shape="411.05,394.10 376.99,384.15"/>
    </edge>
    <edge id=":V0014_2" function="internal">
        <lane id=":V0014_2_0" index="0" speed="20.00" length="34.14" shape="411.30,389.13 401.84,390.40 394.32,390.70 386.79,390.99 377.33,392.26"/>
        <lane id=":V0014_2_1" index="1" speed="20.00" length="34.14" shape="410.70,385.99 401.25,387.26 393.72,387.55 386.20,387.85 376.74,389.11"/>
    </edge>
    <edge id=":V0014_4" function="internal">
        <lane id=":V0014_4_0" index="0" speed="21.50" length="33.32" shape="410.11,382.84 399.39,384.41 389.82,385.06 382.12,384.92 376.99,384.15"/>
    </edge>
    <edge id=":V0015_0" function="internal">
        <lane id=":V0015_0_0" index="0" speed="6.26" length="9.04" shape="641.50,357.40 643.66,358.69 645.65,358.91 647.46,358.06 649.10,356.14"/>
        <lane id=":V0015_0_1" index="1" speed="7.80" length="14.67" shape="639.48,359.89 642.99,361.98 646.22,362.34 649.16,360.96 651.81,357.85"/>
    </edge>
    <edge id=":V0015_2" function="internal">
        <lane id=":V0015_2_0" index="0" speed="14.50" length="11.34" shape="639.48,359.89 648.29,367.03"/>
    </edge>
    <edge id=":V0015_3" function="internal">
        <lane id=":V0015_3_0" index="0" speed="22.00" length="15.80" shape="646.21,372.76 647.61,369.59 648.42,366.24 649.52,362.43 651.81,357.85"/>
        <lane id=":V0015_3_1" index="1" speed="22.00" length="15.80" shape="646.21,372.76 654.51,359.55"/>
    </edge>
    <edge id=":V0015_5" function="internal">
        <lane id=":V0015_5_0" index="0" speed="5.28" length="6.10" shape="646.21,372.76 648.29,367.03"/>
    </edge>
    <edge id=":V0016_0" function="internal">
        <lane id=":V0016_0_0" index="0" speed="5.95" length="10.53" shape="199.39,335.49 200.71,338.82 202.32,340.46 204.20,340.42 206.37,338.70"/>
    </edge>
    <edge id=":V0016_1" function="internal">
        <lane id=":V0016_1_0" index="0" speed="21.00" length="19.35" shape="199.39,335.49 204.66,354.11"/>
    </edge>
    <edge id=":V0016_2" function="internal">
        <lane id=":V0016_2_0" index="0" speed="12.50" length="16.24" shape="193.41,348.31 196.95,345.12 199.89,343.51 202.82,341.89 206.37,338.70"/>
        <lane id=":V0016_2_1" index="1" speed="12.50" length="16.24" shape="195.78,350.45 199.33,347.26 202.27,345.65 205.20,344.03 208.75,340.84"/>
    </edge>
    <edge id=":V0016_4" function="internal">
        <lane id=":V0016_4_0" index="0" speed="5.63" length="9.28" shape="198.16,352.59 200.30,350.77 202.09,350.41 203.55,351.52 204.66,354.11"/>
    </edge>
    <edge id=":V0017_0" function="internal">
        <lane id=":V0017_0_0" index="0" speed="9.20" length="5.00" shape="466.17,659.15 467.23,658.37 467.51,657.40 467.63,656.23 468.18,654.84"/>
    </edge>
    <edge id=":V0017_1" function="internal">
        <lane id=":V0017_1_0" index="0" speed="25.00" length="6.51" shape="467.40,662.10 473.40,659.60"/>
    </edge>
    <edge id=":V0017_2" function="internal">
        <lane id=":V0017_2_0" index="0" speed="14.00" length="13.50" shape="463.69,667.73 465.01,664.75 465.56,661.86 466.30,658.68 468.18,654.84"/>
        <lane id=":V0017_2_1" index="1" speed="14.00" length="13.50" shape="463.69,667.73 470.87,656.57"/>
    </edge>
    <edge id=":V0017_4" function="internal">
        <lane id=":V0017_4_0" index="0" speed="14.55" length="12.90" shape="463.69,667.73 465.70,664.95 467.83,662.81 470.32,661.09 473.40,659.60"/>
    </edge>
    <edge id=":V0018_0" function="internal">
        <lane id=":V0018_0_0" index="0" speed="20.00" length="24.58" shape="371.09,508.66 365.32,513.58 360.65,516.59 356.29,519.29 351.43,523.32"/>
        <lane id=":V0018_0_1" index="1" speed="20.00" length="24.58" shape="368.86,506.37 363.08,511.29 358.42,514.29 354.06,517.00 349.20,521.03"/>
    </edge>
    <edge id=":V0018_2" function="internal">
        <lane id=":V0018_2_0" index="0" speed="5.46" length="4.15" shape="366.62,504.08 364.12,506.04 363.15,506.17"/>
    </edge>
    <edge id=":V0018_5" function="internal">
        <lane id=":V0018_5_0" index="0" speed="5.46" length="5.71" shape="363.15,506.17 362.39,506.28 361.43,504.82 361.25,501.64"/>
    </edge>
    <edge id=":V0018_3" function="internal">
        <lane id=":V0018_3_0" index="0" speed="5.46" length="9.86" shape="356.81,525.76 356.63,522.58 355.67,521.12 353.94,521.36 351.43,523.32"/>
    </edge>
    <edge id=":V0018_4" function="internal">
        <lane id=":V0018_4_0" index="0" speed="18.50" length="24.31" shape="360.00,525.92 361.25,501.64"/>
    </edge>
    <edge id=":V0019_0" function="internal">
        <lane id=":V0019_0_0" index="0" speed="8.73" length="12.89" shape="373.03,288.75 374.34,288.97 376.74,288.29 380.24,286.69 384.83,284.19"/>
    </edge>
    <edge id=":V0019_1" function="internal">
        <lane id=":V0019_1_0" index="0" speed="21.50" length="10.34" shape="373.03,288.75 375.77,289.84 378.45,289.28 381.22,288.80 384.22,290.12"/>
        <lane id=":V0019_1_1" index="1" speed="21.50" length="10.34" shape="373.03,288.75 375.48,290.25 377.56,290.63 379.65,291.01 382.09,292.52"/>
        <lane id=":V0019_1_2" index="2" speed="21.50" length="10.34" shape="373.03,288.75 379.97,294.91"/>
    </edge>
    <edge id=":V0019_4" function="internal">
        <lane id=":V0019_4_0" index="0" speed="13.00" length="13.19" shape="372.23,287.74 375.98,286.16 379.03,285.68 381.83,285.34 384.83,284.19"/>
    </edge>
    <edge id=":V0019_5" function="internal">
        <lane id=":V0019_5_0" index="0" speed="7.43" length="9.11" shape="373.82,290.52 375.71,289.85 377.72,289.97 379.84,290.85 382.09,292.52"/>
        <lane id=":V0019_5_1" index="1" speed="6.85" length="7.63" shape="373.82,290.52 375.04,290.90 376.94,292.28 378.81,293.87 379.97,294.91"/>
    </edge>
    <edge id=":V0020_0" function="internal">
        <lane id=":V0020_0_0" index="0" speed="6.26" length="9.04" shape="313.69,716.42 314.72,718.73 316.22,720.05 318.19,720.40 320.63,719.78"/>
        <lane id=":V0020_0_1" index="1" speed="7.80" length="14.67" shape="310.62,717.29 312.28,721.03 314.71,723.18 317.90,723.75 321.86,722.73"/>
    </edge>
    <edge id=":V0020_2" function="internal">
        <lane id=":V0020_2_0" index="0" speed="8.00" length="16.29" shape="307.54,718.16 309.81,722.52 312.74,724.80 315.67,727.08 317.94,731.43"/>
        <lane id=":V0020_2_1" index="1" speed="8.00" length="16.29" shape="307.54,718.16 309.29,722.53 311.20,725.23 313.10,727.94 314.86,732.30"/>
        <lane id=":V0020_2_2" index="2" speed="8.00" length="16.29" shape="307.54,718.16 311.78,733.17"/>
    </edge>
    <edge id=":V0020_5" function="internal">
        <lane id=":V0020_5_0" index="0" speed="16.00" length="18.60" shape="304.84,729.82 308.04,727.94 311.23,725.42 315.17,722.59 320.63,719.78"/>
        <lane id=":V0020_5_1" index="1" speed="16.00" length="18.60" shape="304.84,729.82 321.86,722.73"/>
    </edge>
    <edge id=":V0020_7" function="internal">
        <lane id=":V0020_7_0" index="0" speed="7.10" length="11.95" shape="304.84,729.82 308.59,728.67 311.51,728.70 313.60,729.91 314.86,732.30"/>
        <lane id=":V0020_7_1" index="1" speed="6.26" length="9.04" shape="304.84,729.82 307.28,729.19 309.25,729.54 310.75,730.87 311.78,733.17"/>
    </edge>
    <edge id=":V0021_0" function="internal">
        <lane id=":V0021_0_0" index="0" speed="24.00" length="24.16" shape="584.19,491.24 576.94,494.72 570.53,496.24 565.21,497.05 561.28,498.40"/>
    </edge>
    <edge id=":V0021_1" function="internal">
        <lane id=":V0021_1_0" index="0" speed="6.22" length="6.51" shape="582.45,488.55 578.57,489.47 576.31,488.35"/>
        <lane id=":V0021_1_1" index="1" speed="5.65" length="4.55" shape="580.72,485.86 576.97,487.92 576.70,487.94"/>
    </edge>
    <edge id=":V0021_6" function="internal">
        <lane id=":V0021_6_0" index="0" speed="6.22" length="8.72" shape="576.31,488.35 575.33,487.86 573.67,484.63 574.55,480.74"/>
    </edge>
    <edge id=":V0021_7" function="internal">
        <lane id=":V0021_7_0" index="0" speed="5.65" length="7.67" shape="576.70,487.94 575.14,488.04 575.24,486.22 577.26,482.44"/>
    </edge>
    <edge id=":V0021_3" function="internal">
        <lane id=":V0021_3_0" index="0" speed="6.66" length="17.77" shape="560.93,508.43 564.84,501.62 566.20,497.67 565.01,496.60 561.28,498.40"/>
    </edge>
    <edge id=":V0021_4" function="internal">
        <lane id=":V0021_4_0" index="0" speed="19.00" length="30.79" shape="560.93,508.43 563.43,503.51 566.74,496.17 570.55,488.04 574.55,480.74"/>
        <lane id=":V0021_4_1" index="1" speed="19.00" length="30.79" shape="560.93,508.43 577.26,482.44"/>
    </edge>
    <edge id=":V0022_0" function="internal">
        <lane id=":V0022_0_0" index="0" speed="4.54" length="4.65" shape="377.31,151.90 378.14,151.93 378.77,151.36 379.19,150.21 379.39,148.47"/>
    </edge>
    <edge id=":V0022_1" function="internal">
        <lane id=":V0022_1_0" index="0" speed="17.00" length="7.38" shape="377.31,151.90 379.51,152.12 381.10,151.49 382.69,150.86 384.89,151.07"/>
        <lane id=":V0022_1_1" index="1" speed="17.00" length="7.38" shape="377.31,151.90 383.87,154.11"/>
    </edge>
    <edge id=":V0022_3" function="internal">
        <lane id=":V0022_3_0" index="0" speed="7.50" length="10.81" shape="375.68,158.47 376.34,155.36 377.54,153.35 378.74,151.39 379.39,148.47"/>
    </edge>
    <edge id=":V0022_4" function="internal">
        <lane id=":V0022_4_0" index="0" speed="5.75" length="8.24" shape="378.87,158.64 379.30,156.06 380.28,154.45 381.80,153.80 383.87,154.11"/>
    </edge>
    <edge id=":V0023_0" function="internal">
        <lane id=":V0023_0_0" index="0" speed="7.35" length="11.74" shape="301.28,224.97 303.47,226.19 305.88,226.12 308.51,224.77 311.34,222.14"/>
    </edge>
    <edge id=":V0023_1" function="internal">
        <lane id=":V0023_1_0" index="0" speed="14.00" length="14.61" shape="301.28,224.97 304.09,226.81 307.05,227.97 310.35,229.42 314.16,232.14"/>
        <lane id=":V0023_1_1" index="1" speed="14.00" length="14.61" shape="301.28,224.97 312.03,234.53"/>
    </edge>
    <edge id=":V0023_3" function="internal">
        <lane id=":V0023_3_0" index="0" speed="13.00" length="14.39" shape="301.71,232.83 311.34,222.14"/>
        <lane id=":V0023_3_1" index="1" speed="13.00" length="14.39" shape="304.09,234.97 313.72,224.28"/>
    </edge>
    <edge id=":V0023_5" function="internal">
        <lane id=":V0023_5_0" index="0" speed="6.53" length="9.06" shape="304.09,234.97 306.00,233.38 307.95,232.78 309.97,233.16 312.03,234.53"/>
    </edge>
    <edge id=":V0024_0" function="internal">
        <lane id=":V0024_0_0" index="0" speed="9.00" length="13.66" shape="683.90,337.89 680.13,337.58 677.65,335.81 675.18,334.04 671.41,333.73"/>
    </edge>
    <edge id=":V0024_1" function="internal">
        <lane id=":V0024_1_0" index="0" speed="7.40" length="18.73" shape="683.31,334.75 677.41,335.16 674.30,333.64 674.00,330.20 676.50,324.84"/>
        <lane id=":V0024_1_1" index="1" speed="5.50" length="9.61" shape="682.72,331.60 679.69,331.81 678.10,331.04 677.94,329.27 679.23,326.52"/>
    </edge>
    <edge id=":V0024_3" function="internal">
        <lane id=":V0024_3_0" index="0" speed="5.62" length="10.12" shape="662.77,341.02 672.00,336.87"/>
    </edge>
    <edge id=":V0024_4" function="internal">
        <lane id=":V0024_4_0" index="0" speed="12.00" length="20.98" shape="662.77,341.02 673.78,323.16"/>
        <lane id=":V0024_4_1" index="1" speed="12.00" length="20.98" shape="665.49,342.70 676.50,324.84"/>
        <lane id=":V0024_4_2" index="2" speed="12.00" length="20.98" shape="668.22,344.38 679.23,326.52"/>
    </edge>
    <edge id=":V0025_0" function="internal">
        <lane id=":V0025_0_0" index="0" speed="6.89" length="10.96" shape="234.70,415.82 232.36,416.77 231.01,418.56 230.64,421.20 231.25,424.67"/>
    </edge>
    <edge id=":V0025_1" function="internal">
        <lane id=":V0025_1_0" index="0" speed="13.50" length="18.10" shape="234.70,415.82 231.22,416.98 227.70,418.76 223.41,420.68 217.67,422.27"/>
        <lane id=":V0025_1_1" index="1" speed="13.50" length="18.10" shape="234.70,415.82 217.08,419.13"/>
    </edge>
    <edge id=":V0025_3" function="internal">
        <lane id=":V0025_3_0" index="0" speed="24.00" length="14.43" shape="224.25,411.66 228.17,425.54"/>
        <lane id=":V0025_3_1" index="1" speed="24.00" length="14.43" shape="221.17,412.53 225.09,426.41"/>
    </edge>
    <edge id=":V0025_5" function="internal">
        <lane id=":V0025_5_0" index="0" speed="6.32" length="9.04" shape="221.17,412.53 221.50,415.02 220.93,416.95 219.45,418.32 217.08,419.13"/>
    </edge>
    <edge id=":V0026_0" function="internal">
        <lane id=":V0026_0_0" index="0" speed="10.27" length="14.61" shape="474.00,412.50 472.07,412.64 469.43,413.97 466.07,416.49 462.00,420.21"/>
    </edge>
    <edge id=":V0026_1" function="internal">
        <lane id=":V0026_1_0" index="0" speed="10.50" length="17.68" shape="474.00,412.50 470.41,411.97 466.55,411.99 461.99,411.80 456.30,410.66"/>
        <lane id=":V0026_1_1" index="1" speed="10.50" length="17.68" shape="474.00,412.50 457.20,407.59"/>
    </edge>
    <edge id=":V0026_3" function="internal">
        <lane id=":V0026_3_0" index="0" speed="19.50" length="15.64" shape="470.97,407.01 459.77,417.92"/>
        <lane id=":V0026_3_1" index="1" speed="19.50" length="15.64" shape="468.74,404.72 457.53,415.63"/>
    </edge>
    <edge id=":V0026_5" function="internal">
        <lane id=":V0026_5_0" index="0" speed="9.54" length="12.50" shape="468.74,404.72 466.17,406.70 463.39,407.84 460.40,408.13 457.20,407.59"/>
    </edge>
    <edge id=":V0027_0" function="internal">
        <lane id=":V0027_0_0" index="0" speed="16.50" length="13.66" shape="372.41,382.81 359.30,378.97"/>
    </edge>
    <edge id=":V0027_1" function="internal">
        <lane id=":V0027_1_0" index="0" speed="7.29" length="9.53" shape="372.41,382.81 370.25,381.80 368.75,380.23 367.91,378.10 367.73,375.41"/>
    </edge>
    <edge id=":V0027_2" function="internal">
        <lane id=":V0027_2_0" index="0" speed="6.54" length="7.50" shape="363.97,386.35 363.67,385.09 362.64,383.96 360.89,382.94 358.40,382.05"/>
    </edge>
    <edge id=":V0027_3" function="internal">
        <lane id=":V0027_3_0" index="0" speed="18.00" length="11.12" shape="363.97,386.35 364.54,375.25"/>
        <lane id=":V0027_3_1" index="1" speed="18.00" length="11.12" shape="367.16,386.52 367.73,375.41"/>
    </edge>
    <edge id=":V0028_0" function="internal">
        <lane id=":V0028_0_0" index="0" speed="8.32" length="12.62" shape="704.84,255.17 709.14,256.33 712.55,256.63 715.07,256.06 716.69,254.63"/>
        <lane id=":V0028_0_1" index="1" speed="9.54" length="16.86" shape="703.82,258.20 709.25,259.58 713.66,259.73 717.04,258.64 719.40,256.33"/>
    </edge>
    <edge id=":V0028_2" function="internal">
        <lane id=":V0028_2_0" index="0" speed="16.50" length="10.59" shape="702.80,261.23 705.92,261.75 708.18,261.35 710.45,260.95 713.56,261.47"/>
        <lane id=":V0028_2_1" index="1" speed="16.50" length="10.59" shape="702.80,261.23 712.54,264.51"/>
    </edge>
    <edge id=":V0028_4" function="internal">
        <lane id=":V0028_4_0" index="0" speed="21.00" length="17.34" shape="704.96,267.27 708.08,263.24 710.82,260.95 713.56,258.65 716.69,254.63"/>