<nodes><node id="V0001" x="124.67800000000001" y="189.55666666666667" type="priority" /><node id="V0002" x="347.24399999999997" y="977.1466666666668" type="priority" /><node id="V0003" x="383.3773333333333" y="273.8693333333333" type="priority" /><node id="V0004" x="588.8199999999999" y="602.0693333333334" type="priority" /><node id="V0005" x="884.9866666666666" y="121.68333333333334" type="priority" /><node id="V0006" x="829.58" y="635.6966666666667" type="priority" /><node id="V0007" x="2.5716933333333336" y="980.24" type="priority" /><node id="V0008" x="826.1666666666666" y="425.17600000000004" type="priority" /><node id="V0009" x="129.10533333333333" y="556.202" type="priority" /><node id="V0010" x="300.888" y="481.1673333333334" type="priority" /><node id="V0011" x="294.84000000000003" y="791.7066666666667" type="priority" /><node id="V0012" x="376.22266666666667" y="413.1206666666667" type="priority" /><node id="V0013" x="719.8866666666667" y="389.4786666666667" type="priority" /><node id="V0014" x="389.8926666666667" y="507.18199999999996" type="priority" /><node id="V0015" x="652.2639999999999" y="491.90866666666665" type="priority" /><node id="V0016" x="204.6" y="472.37533333333334" type="priority" /><node id="V0017" x="470.92333333333335" y="785.12" type="priority" /><node id="V0018" x="365.2133333333333" y="627.4026666666667" type="priority" /><node id="V0019" x="376.924" y="413.7433333333333" type="priority" /><node id="V0020" x="311.7213333333333" y="851.44" type="priority" /><node id="V0021" x="579.0593333333333" y="608.3653333333333" type="priority" /><node id="V0022" x="383.24733333333336" y="276.406" type="priority" /><node id="V0023" x="310.54066666666665" y="354.74399999999997" type="priority" /><node id="V0024" x="681.06" y="452.4506666666667" type="priority" /><node id="V0025" x="223.286" y="538.4986666666666" type="priority" /><node id="V0026" x="465.93266666666665" y="529.4073333333333" type="priority" /><node id="V0027" x="371.664" y="501.85400000000004" type="priority" /><node id="V0028" x="717.2133333333334" y="388.58133333333336" type="priority" /><node id="V0029" x="481.638" y="353.54866666666663" type="priority" /><node id="V0030" x="655.2453333333334" y="494.32666666666665" type="priority" /><node id="V0031" x="273.59866666666665" y="716.5400000000001" type="priority" /><node id="V0032" x="354.6206666666667" y="833.5733333333334" type="priority" /><node id="V0033" x="214.42866666666666" y="507.15400000000005" type="priority" /><node id="V0034" x="585.0973333333333" y="598.76" type="priority" /><node id="V0035" x="358.8946666666667" y="750.3866666666667" type="priority" /><node id="V0036" x="466.89866666666666" y="786.7933333333333" type="priority" /><node id="V0037" x="381.5933333333333" y="275.85066666666665" type="priority" /><node id="V0038" x="512.4540000000001" y="484.144" type="priority" /><node id="V0039" x="371.21" y="510.6933333333333" type="priority" /><node id="V0040" x="608.0146666666666" y="570.9353333333333" type="priority" /><node id="V0041" x="376.16866666666664" y="414.178" type="priority" /><node id="V0042" x="676.5333333333333" y="453.30199999999996" type="priority" /><node id="V0043" x="388.81066666666663" y="278.27466666666663" type="priority" /><node id="V0044" x="571.6553333333334" y="426.5433333333333" type="priority" /><node id="V0045" x="530.0546666666667" y="325.71666666666664" type="priority" /><node id="V0046" x="465.96733333333333" y="492.88199999999995" type="priority" /><node id="V0047" x="603.4300000000001" y="569.5953333333333" type="priority" /><node id="V0048" x="485.56800000000004" y="510.30266666666665" type="priority" /><node id="V0049" x="618.1806666666666" y="464.27066666666667" type="priority" /><node id="V0050" x="638.0139999999999" y="361.9786666666667" type="priority" /><node id="V0051" x="527.2186666666666" y="547.3199999999999" type="priority" /></nodes>