<configuration><input><net-file value="11.net.xml" /><route-files value="11.rou.xml" /></input><time><begin value="0" /></time></configuration>