<?xml version="1.0" encoding="UTF-8"?>

<!-- generated on 2023-06-26 02:05:30 by Eclipse SUMO netconvert Version 1.16.0
<configuration xmlns:xsi="http://www.w3.org/2001/XMLSchema-instance" xsi:noNamespaceSchemaLocation="http://sumo.dlr.de/xsd/netconvertConfiguration.xsd">

    <input>
        <node-files value="data/simulationConfigurations/tests/23\23.nod.xml"/>
        <edge-files value="data/simulationConfigurations/tests/23\23.edg.xml"/>
    </input>

    <output>
        <output-file value="data/simulationConfigurations/tests/23\23.net.xml"/>
    </output>

</configuration>
-->

<net version="1.16" junctionCornerDetail="5" limitTurnSpeed="5.50" xmlns:xsi="http://www.w3.org/2001/XMLSchema-instance" xsi:noNamespaceSchemaLocation="http://sumo.dlr.de/xsd/net_file.xsd">

    <location netOffset="-54.62,-170.74" convBoundary="0.00,0.00,900.52,846.61" origBoundary="54.62,170.74,955.14,1017.35" projParameter="!"/>

    <edge id=":V0001_0" function="internal">
        <lane id=":V0001_0_0" index="0" speed="5.94" length="8.68" shape="279.92,459.89 278.09,458.42 276.30,458.08 274.54,458.87 272.82,460.79"/>
        <lane id=":V0001_0_1" index="1" speed="7.37" length="14.02" shape="281.59,456.97 278.73,454.73 275.88,454.32 273.03,455.74 270.18,458.99"/>
        <lane id=":V0001_0_2" index="2" speed="8.56" length="19.37" shape="283.26,454.05 279.37,451.04 275.45,450.56 271.51,452.61 267.54,457.19"/>
    </edge>
    <edge id=":V0001_3" function="internal">
        <lane id=":V0001_3_0" index="0" speed="5.42" length="11.48" shape="283.26,454.05 281.02,451.30 280.66,449.13 282.18,447.54 285.58,446.53"/>
    </edge>
    <edge id=":V0002_0" function="internal">
        <lane id=":V0002_0_0" index="0" speed="12.42" length="60.20" shape="55.54,844.79 39.26,842.36 28.98,832.77 26.63,819.29 34.20,805.19"/>
        <lane id=":V0002_0_1" index="1" speed="11.55" length="51.77" shape="54.34,841.71 40.44,839.57 31.78,831.23 29.96,819.54 36.55,807.37"/>
    </edge>
    <edge id=":V0002_2" function="internal">
        <lane id=":V0002_2_0" index="0" speed="10.25" length="42.98" shape="54.34,841.71 43.10,839.53 36.44,831.90 35.68,821.88 42.12,812.54"/>
    </edge>
    <edge id=":V0002_3" function="internal">
        <lane id=":V0002_3_0" index="0" speed="8.49" length="31.22" shape="54.34,841.71 44.94,839.63 40.51,835.61 41.07,829.66 46.61,821.78"/>
    </edge>
    <edge id=":V0002_4" function="internal">
        <lane id=":V0002_4_0" index="0" speed="11.50" length="110.84" shape="46.09,816.22 76.45,788.42 85.51,778.17 73.27,785.47 39.74,810.33"/>
    </edge>
    <edge id=":V0002_5" function="internal">
        <lane id=":V0002_5_0" index="0" speed="3.94" length="5.29" shape="46.09,816.22 47.22,815.09 47.29,814.64 46.32,814.87 44.29,815.79"/>
        <lane id=":V0002_5_1" index="1" speed="6.50" length="18.94" shape="43.73,814.03 38.55,819.04 37.12,821.51 39.42,821.42 45.45,818.79"/>
        <lane id=":V0002_5_2" index="2" speed="6.50" length="43.13" shape="41.38,811.85 29.89,823.00 26.94,828.38 32.51,827.97 46.61,821.78"/>
    </edge>
    <edge id=":V0002_8" function="internal">
        <lane id=":V0002_8_0" index="0" speed="4.81" length="9.62" shape="41.38,811.85 38.49,812.54 36.72,812.02 36.08,810.29 36.55,807.37"/>
    </edge>
    <edge id=":V0002_9" function="internal">
        <lane id=":V0002_9_0" index="0" speed="6.33" length="17.49" shape="36.49,807.31 40.00,801.82 40.79,799.64 38.86,800.76 34.20,805.19"/>
        <lane id=":V0002_9_1" index="1" speed="6.51" length="18.64" shape="34.12,805.10 30.37,810.95 29.53,813.28 31.59,812.08 36.55,807.37"/>
    </edge>
    <edge id=":V0002_11" function="internal">
        <lane id=":V0002_11_0" index="0" speed="7.65" length="25.20" shape="34.12,805.10 29.41,812.84 28.78,816.29 32.22,815.45 39.74,810.33"/>
    </edge>
    <edge id=":V0002_12" function="internal">
        <lane id=":V0002_12_0" index="0" speed="7.00" length="46.26" shape="31.74,802.90 23.86,816.71 23.51,823.96 30.71,824.65 45.45,818.79"/>
    </edge>
    <edge id=":V0002_13" function="internal">
        <lane id=":V0002_13_0" index="0" speed="9.19" length="38.99" shape="30.87,802.09 23.36,814.50 21.81,819.52 26.20,817.14 36.55,807.37"/>
    </edge>
    <edge id=":V0002_14" function="internal">
        <lane id=":V0002_14_0" index="0" speed="10.37" length="47.54" shape="30.87,802.09 22.39,816.86 21.43,823.53 28.01,822.09 42.12,812.54"/>
    </edge>
    <edge id=":V0002_15" function="internal">
        <lane id=":V0002_15_0" index="0" speed="11.42" length="53.73" shape="30.87,802.09 21.97,818.51 21.63,827.26 29.85,828.35 46.61,821.78"/>
    </edge>
    <edge id=":V0003_0" function="internal">
        <lane id=":V0003_0_0" index="0" speed="5.46" length="9.99" shape="430.07,599.68 432.46,601.89 434.16,602.28 435.17,600.86 435.49,597.62"/>
    </edge>
    <edge id=":V0003_1" function="internal">
        <lane id=":V0003_1_0" index="0" speed="7.50" length="23.87" shape="427.67,601.80 433.87,607.83 439.18,610.82 443.59,610.75 447.12,607.62"/>
    </edge>
    <edge id=":V0003_2" function="internal">
        <lane id=":V0003_2_0" index="0" speed="14.00" length="33.36" shape="425.26,603.91 432.46,612.10 438.99,619.24 444.55,624.56 448.85,627.27"/>
    </edge>
    <edge id=":V0003_3" function="internal">
        <lane id=":V0003_3_0" index="0" speed="12.50" length="28.85" shape="442.24,626.23 438.68,597.60"/>
        <lane id=":V0003_3_1" index="1" speed="12.50" length="28.68" shape="442.24,626.23 442.56,621.71 442.40,612.11 442.07,602.41 441.88,597.58"/>
    </edge>
    <edge id=":V0003_5" function="internal">
        <lane id=":V0003_5_0" index="0" speed="7.00" length="18.96" shape="442.24,626.23 444.15,623.53 444.37,619.11 444.75,613.61 447.12,607.62"/>
        <lane id=":V0003_5_1" index="1" speed="7.00" length="18.96" shape="442.24,626.23 444.60,623.76 445.79,619.87 447.09,614.96 449.78,609.39"/>
        <lane id=":V0003_5_2" index="2" speed="7.00" length="18.96" shape="442.24,626.23 445.02,624.02 447.15,620.72 449.37,616.40 452.45,611.15"/>
    </edge>
    <edge id=":V0003_8" function="internal">
        <lane id=":V0003_8_0" index="0" speed="8.99" length="7.02" shape="442.24,626.23 444.09,625.63 445.48,625.82 446.89,626.47 448.85,627.27"/>
    </edge>
    <edge id=":V0004_0" function="internal">
        <lane id=":V0004_0_0" index="0" speed="9.10" length="28.78" shape="820.71,9.75 827.62,3.38 834.37,-1.14 839.67,-1.75 842.21,3.59"/>
        <lane id=":V0004_0_1" index="1" speed="7.83" length="20.88" shape="822.98,12.00 828.38,6.86 833.45,2.93 837.29,1.51 839.02,3.86"/>
    </edge>
    <edge id=":V0004_2" function="internal">
        <lane id=":V0004_2_0" index="0" speed="7.74" length="25.01" shape="827.19,14.58 830.80,7.28 835.61,1.55 839.97,-0.42 842.21,3.59"/>
        <lane id=":V0004_2_1" index="1" speed="6.89" length="19.40" shape="830.22,15.60 832.59,9.36 835.34,3.78 837.73,1.18 839.02,3.86"/>
    </edge>
    <edge id=":V0005_0" function="internal">
        <lane id=":V0005_0_0" index="0" speed="11.70" length="47.70" shape="904.97,769.83 901.82,774.40 892.47,772.13 879.22,765.20 864.39,755.77"/>
        <lane id=":V0005_0_1" index="1" speed="10.90" length="41.22" shape="901.78,770.10 898.98,771.72 890.95,768.43 879.40,761.71 866.03,753.02"/>
    </edge>
    <edge id=":V0005_2" function="internal">
        <lane id=":V0005_2_0" index="0" speed="13.07" length="84.02" shape="867.17,751.11 839.21,736.91 829.16,733.40 837.00,740.61 862.74,758.52"/>
        <lane id=":V0005_2_1" index="1" speed="6.87" length="21.63" shape="865.53,753.86 858.33,750.20 855.74,749.30 857.76,751.16 864.39,755.77"/>
    </edge>
    <edge id=":V0005_4" function="internal">
        <lane id=":V0005_4_0" index="0" speed="4.19" length="6.23" shape="863.94,757.41 866.05,757.98 866.83,757.89 866.28,757.16 864.39,755.77"/>
        <lane id=":V0005_4_1" index="1" speed="8.23" length="29.97" shape="862.96,760.45 873.36,763.27 877.34,762.97 874.89,759.55 866.03,753.02"/>
    </edge>
    <edge id=":V0006_0" function="internal">
        <lane id=":V0006_0_0" index="0" speed="8.00" length="29.52" shape="106.08,247.33 115.49,253.10 119.58,254.22 118.33,250.69 111.76,242.51"/>
        <lane id=":V0006_0_1" index="1" speed="6.30" length="16.83" shape="106.08,247.33 111.45,250.62 113.77,251.26 113.06,249.25 109.32,244.58"/>
    </edge>
    <edge id=":V0006_2" function="internal">
        <lane id=":V0006_2_0" index="0" speed="8.16" length="25.13" shape="106.08,247.33 102.17,242.30 102.79,236.86 106.98,232.37 113.79,230.22"/>
        <lane id=":V0006_2_1" index="1" speed="6.88" length="17.33" shape="108.61,245.18 105.93,241.72 106.38,237.97 109.30,234.89 114.01,233.41"/>
        <lane id=":V0006_2_2" index="2" speed="6.98" length="17.92" shape="108.61,245.18 104.79,241.84 104.45,239.31 107.60,237.56 114.22,236.61"/>
    </edge>
    <edge id=":V0007_0" function="internal">
        <lane id=":V0007_0_0" index="0" speed="9.05" length="5.85" shape="663.41,331.59 664.29,330.89 664.84,330.33 665.24,329.66 665.68,328.62"/>
        <lane id=":V0007_0_1" index="1" speed="10.79" length="5.85" shape="663.41,331.59 668.65,329.83"/>
        <lane id=":V0007_0_2" index="2" speed="13.08" length="5.85" shape="663.41,331.59 671.61,331.04"/>
    </edge>
    <edge id=":V0007_3" function="internal">
        <lane id=":V0007_3_0" index="0" speed="7.28" length="19.15" shape="665.35,334.14 670.41,331.68 675.21,331.60 678.51,333.90 679.05,338.58"/>
        <lane id=":V0007_3_1" index="1" speed="6.31" length="13.96" shape="667.29,336.68 671.80,333.74 674.75,332.96 676.12,334.35 675.92,337.92"/>
        <lane id=":V0007_3_2" index="2" speed="5.15" length="8.73" shape="667.29,336.68 670.14,334.81 672.01,334.28 672.90,335.09 672.79,337.26"/>
    </edge>
    <edge id=":V0008_0" function="internal">
        <lane id=":V0008_0_0" index="0" speed="5.44" length="10.53" shape="435.75,188.81 435.40,185.36 434.43,184.01 432.83,184.76 430.60,187.62"/>
    </edge>
    <edge id=":V0008_1" function="internal">
        <lane id=":V0008_1_0" index="0" speed="5.09" length="10.42" shape="438.94,188.15 440.15,185.17 441.72,183.94 443.65,184.46 445.94,186.72"/>
    </edge>
    <edge id=":V0009_0" function="internal">
        <lane id=":V0009_0_0" index="0" speed="11.59" length="52.42" shape="723.73,196.10 724.37,199.14 717.20,207.72 704.71,219.91 689.42,233.83"/>
    </edge>
    <edge id=":V0009_1" function="internal">
        <lane id=":V0009_1_0" index="0" speed="8.08" length="29.00" shape="694.89,238.56 700.35,229.49 701.25,225.68 697.61,227.12 689.42,233.83"/>
    </edge>
    <edge id=":V0009_2" function="internal">
        <lane id=":V0009_2_0" index="0" speed="9.14" length="34.87" shape="700.73,242.69 704.57,230.97 703.97,225.59 698.92,226.54 689.42,233.83"/>
    </edge>
    <edge id=":V0010_0" function="internal">
        <lane id=":V0010_0_0" index="0" speed="7.98" length="29.84" shape="588.51,752.42 590.61,741.44 590.78,737.60 589.01,740.90 585.32,751.34"/>
    </edge>
    <edge id=":V0010_1" function="internal">
        <lane id=":V0010_1_0" index="0" speed="10.50" length="43.22" shape="588.51,752.42 584.61,765.38 579.10,774.97 571.98,781.18 563.25,784.01"/>
    </edge>
    <edge id=":V0010_2" function="internal">
        <lane id=":V0010_2_0" index="0" speed="10.71" length="38.82" shape="585.45,751.38 582.25,763.74 577.87,773.66 572.21,778.28 565.15,774.73"/>
    </edge>
    <edge id=":V0010_3" function="internal">
        <lane id=":V0010_3_0" index="0" speed="5.51" length="11.01" shape="577.06,750.05 578.19,753.62 579.44,754.86 580.81,753.75 582.28,750.31"/>
    </edge>
    <edge id=":V0010_4" function="internal">
        <lane id=":V0010_4_0" index="0" speed="12.69" length="40.22" shape="577.06,750.05 579.02,762.31 577.97,771.55 572.92,777.73 562.87,780.83"/>
    </edge>
    <edge id=":V0010_5" function="internal">
        <lane id=":V0010_5_0" index="0" speed="8.64" length="30.24" shape="573.94,750.76 575.31,760.68 574.96,769.80 572.50,774.85 567.52,772.58"/>
        <lane id=":V0010_5_1" index="1" speed="8.14" length="26.59" shape="573.94,750.76 575.40,759.58 575.65,767.77 574.03,772.37 569.89,770.43"/>
    </edge>
    <edge id=":V0011_0" function="internal">
        <lane id=":V0011_0_0" index="0" speed="17.00" length="20.71" shape="439.54,636.08 425.64,620.73"/>
        <lane id=":V0011_0_1" index="1" speed="17.00" length="20.71" shape="441.91,633.93 428.01,618.58"/>
        <lane id=":V0011_0_2" index="2" speed="17.00" length="20.71" shape="444.29,631.78 430.38,616.44"/>
    </edge>
    <edge id=":V0011_3" function="internal">
        <lane id=":V0011_3_0" index="0" speed="5.20" length="6.54" shape="444.29,631.78 442.60,629.74 441.67,628.15 441.49,627.01 442.06,626.32"/>
    </edge>
    <edge id=":V0011_4" function="internal">
        <lane id=":V0011_4_0" index="0" speed="5.99" length="9.08" shape="424.26,627.98 426.40,626.51 427.35,624.81 427.09,622.89 425.64,620.73"/>
        <lane id=":V0011_4_1" index="1" speed="7.60" length="15.37" shape="425.68,630.85 429.31,628.36 430.90,625.49 430.47,622.23 428.01,618.58"/>
    </edge>
    <edge id=":V0011_6" function="internal">
        <lane id=":V0011_6_0" index="0" speed="8.00" length="16.69" shape="427.10,633.72 442.06,626.32"/>
    </edge>
    <edge id=":V0012_0" function="internal">
        <lane id=":V0012_0_0" index="0" speed="21.50" length="16.35" shape="400.92,448.87 387.33,439.76"/>
        <lane id=":V0012_0_1" index="1" speed="21.50" length="16.35" shape="402.70,446.21 389.11,437.10"/>
        <lane id=":V0012_0_2" index="2" speed="21.50" length="16.35" shape="404.48,443.55 390.90,434.44"/>
    </edge>
    <edge id=":V0012_3" function="internal">
        <lane id=":V0012_3_0" index="0" speed="6.14" length="9.06" shape="404.48,443.55 402.58,441.84 401.83,440.02 402.21,438.08 403.72,436.03"/>
    </edge>
    <edge id=":V0012_4" function="internal">
        <lane id=":V0012_4_0" index="0" speed="6.14" length="9.06" shape="388.09,447.29 389.61,445.23 389.99,443.29 389.23,441.47 387.33,439.76"/>
        <lane id=":V0012_4_1" index="1" speed="7.70" length="14.96" shape="390.36,449.54 392.87,446.14 393.50,442.94 392.25,439.93 389.11,437.10"/>
    </edge>
    <edge id=":V0012_6" function="internal">
        <lane id=":V0012_6_0" index="0" speed="18.00" length="19.00" shape="390.36,449.54 403.72,436.03"/>
    </edge>
    <edge id=":V0013_0" function="internal">
        <lane id=":V0013_0_0" index="0" speed="20.00" length="14.40" shape="441.28,513.94 441.18,499.54"/>
    </edge>
    <edge id=":V0013_1" function="internal">
        <lane id=":V0013_1_0" index="0" speed="10.14" length="11.91" shape="441.28,513.94 441.65,511.37 442.77,508.89 444.65,506.47 447.29,504.13"/>
    </edge>
    <edge id=":V0013_2" function="internal">
        <lane id=":V0013_2_0" index="0" speed="10.84" length="13.69" shape="435.84,512.86 436.81,511.39 437.49,508.68 437.88,504.74 437.98,499.56"/>
    </edge>
    <edge id=":V0013_3" function="internal">
        <lane id=":V0013_3_0" index="0" speed="20.50" length="14.62" shape="435.84,512.86 438.18,510.45 439.89,507.76 441.95,504.81 445.36,501.59"/>
        <lane id=":V0013_3_1" index="1" speed="20.50" length="14.62" shape="435.84,512.86 447.29,504.13"/>
    </edge>
    <edge id=":V0014_0" function="internal">
        <lane id=":V0014_0_0" index="0" speed="5.48" length="9.67" shape="520.03,498.76 521.05,501.66 522.39,502.81 524.04,502.21 526.02,499.85"/>
    </edge>
    <edge id=":V0014_1" function="internal">
        <lane id=":V0014_1_0" index="0" speed="14.50" length="16.94" shape="516.91,499.47 520.66,515.99"/>
    </edge>
    <edge id=":V0014_2" function="internal">
        <lane id=":V0014_2_0" index="0" speed="9.50" length="17.53" shape="516.35,514.48 526.02,499.85"/>
    </edge>
    <edge id=":V0014_3" function="internal">
        <lane id=":V0014_3_0" index="0" speed="4.84" length="7.18" shape="516.35,514.48 517.73,512.90 518.90,512.62 519.88,513.65 520.66,515.99"/>
    </edge>
    <edge id=":V0015_0" function="internal">
        <lane id=":V0015_0_0" index="0" speed="7.20" length="8.89" shape="615.38,609.47 615.33,611.46 616.06,613.27 617.56,614.93 619.83,616.42"/>
    </edge>
    <edge id=":V0015_1" function="internal">
        <lane id=":V0015_1_0" index="0" speed="23.50" length="16.01" shape="615.38,609.47 612.08,625.14"/>
    </edge>
    <edge id=":V0015_2" function="internal">
        <lane id=":V0015_2_0" index="0" speed="14.50" length="10.66" shape="609.29,614.45 612.26,615.47 614.56,615.44 616.85,615.40 619.83,616.42"/>
        <lane id=":V0015_2_1" index="1" speed="14.50" length="10.66" shape="607.79,617.28 610.77,618.29 613.06,618.26 615.35,618.23 618.33,619.24"/>
        <lane id=":V0015_2_2" index="2" speed="14.50" length="10.66" shape="607.79,617.28 616.83,622.07"/>
    </edge>
    <edge id=":V0015_5" function="internal">
        <lane id=":V0015_5_0" index="0" speed="7.49" length="9.69" shape="607.79,617.28 610.06,618.84 611.54,620.66 612.21,622.77 612.08,625.14"/>
    </edge>
    <edge id=":V0016_0" function="internal">
        <lane id=":V0016_0_0" index="0" speed="7.35" length="11.76" shape="367.94,520.57 366.48,522.61 366.27,525.02 367.32,527.79 369.61,530.92"/>
    </edge>
    <edge id=":V0016_1" function="internal">
        <lane id=":V0016_1_0" index="0" speed="21.00" length="15.15" shape="367.94,520.57 365.76,523.19 364.17,526.08 362.21,529.30 358.92,532.90"/>
        <lane id=":V0016_1_1" index="1" speed="21.00" length="15.15" shape="367.94,520.57 356.79,530.52"/>
    </edge>
    <edge id=":V0016_3" function="internal">
        <lane id=":V0016_3_0" index="0" speed="15.00" length="15.53" shape="360.09,520.10 362.57,523.68 363.65,526.56 364.72,529.45 367.20,533.03"/>
        <lane id=":V0016_3_1" index="1" speed="15.00" length="15.53" shape="360.09,520.10 362.29,524.11 362.44,527.62 362.60,531.13 364.80,535.14"/>
    </edge>
    <edge id=":V0016_5" function="internal">
        <lane id=":V0016_5_0" index="0" speed="7.46" length="12.15" shape="357.69,522.21 359.94,525.36 360.90,528.19 360.56,530.71 358.92,532.90"/>
        <lane id=":V0016_5_1" index="1" speed="5.85" length="7.07" shape="355.28,524.32 356.77,526.29 357.52,527.98 357.53,529.39 356.79,530.52"/>
    </edge>
    <edge id=":V0017_0" function="internal">
        <lane id=":V0017_0_0" index="0" speed="5.29" length="5.56" shape="605.85,671.04 607.10,665.62"/>
        <lane id=":V0017_0_1" index="1" speed="6.75" length="9.71" shape="604.87,674.09 606.14,673.92 607.45,672.63 608.78,670.20 610.14,666.63"/>
    </edge>
    <edge id=":V0017_2" function="internal">
        <lane id=":V0017_2_0" index="0" speed="17.00" length="11.71" shape="603.89,677.13 607.33,677.71 609.82,677.36 612.30,677.00 615.74,677.58"/>
        <lane id=":V0017_2_1" index="1" speed="17.00" length="11.71" shape="603.89,677.13 614.76,680.63"/>
    </edge>
    <edge id=":V0017_4" function="internal">
        <lane id=":V0017_4_0" index="0" speed="18.50" length="17.48" shape="604.62,683.22 610.14,666.63"/>
        <lane id=":V0017_4_1" index="1" speed="18.50" length="17.48" shape="607.65,684.23 613.18,667.64"/>
    </edge>
    <edge id=":V0017_6" function="internal">
        <lane id=":V0017_6_0" index="0" speed="6.54" length="9.07" shape="607.65,684.23 608.76,682.01 610.32,680.67 612.32,680.21 614.76,680.63"/>
    </edge>
    <edge id=":V0018_0" function="internal">
        <lane id=":V0018_0_0" index="0" speed="6.69" length="14.33" shape="418.56,206.12 416.06,210.78 415.52,214.02 416.96,215.85 420.37,216.26"/>
    </edge>
    <edge id=":V0018_1" function="internal">
        <lane id=":V0018_1_0" index="0" speed="13.50" length="20.15" shape="418.56,206.12 416.90,209.60 415.48,213.80 413.54,218.79 410.34,224.63"/>
        <lane id=":V0018_1_1" index="1" speed="13.50" length="20.15" shape="418.56,206.12 407.66,222.88"/>
    </edge>
    <edge id=":V0018_3" function="internal">
        <lane id=":V0018_3_0" index="0" speed="14.50" length="17.48" shape="403.98,210.94 409.46,211.58 413.52,213.51 416.91,215.49 420.37,216.26"/>
    </edge>
    <edge id=":V0018_4" function="internal">
        <lane id=":V0018_4_0" index="0" speed="7.38" length="17.76" shape="404.19,214.13 409.66,214.45 412.51,216.30 412.74,219.70 410.34,224.63"/>
        <lane id=":V0018_4_1" index="1" speed="5.56" length="9.40" shape="404.40,217.32 407.30,217.49 408.81,218.47 408.93,220.27 407.66,222.88"/>
    </edge>
    <edge id=":V0019_0" function="internal">
        <lane id=":V0019_0_0" index="0" speed="13.00" length="17.79" shape="333.76,514.56 329.87,511.00 326.69,509.13 323.51,507.26 319.61,503.71"/>
        <lane id=":V0019_0_1" index="1" speed="13.00" length="17.79" shape="336.13,512.41 332.24,508.85 329.06,506.98 325.88,505.11 321.99,501.56"/>
        <lane id=":V0019_0_2" index="2" speed="13.00" length="17.79" shape="336.13,512.41 324.36,499.41"/>
    </edge>
    <edge id=":V0019_3" function="internal">
        <lane id=":V0019_3_0" index="0" speed="7.00" length="10.20" shape="336.13,512.41 333.67,509.40 332.22,506.93 331.78,505.02 332.36,503.65"/>
        <lane id=":V0019_3_1" index="1" speed="6.07" length="7.39" shape="336.13,512.41 334.62,510.43 333.86,508.69 333.87,507.17 334.63,505.90"/>
    </edge>
    <edge id=":V0019_5" function="internal">
        <lane id=":V0019_5_0" index="0" speed="7.52" length="11.88" shape="321.95,514.17 323.20,512.10 323.23,509.67 322.04,506.87 319.61,503.71"/>
        <lane id=":V0019_5_1" index="1" speed="8.83" length="16.79" shape="324.23,516.42 326.28,513.27 326.60,509.74 325.16,505.84 321.99,501.56"/>
    </edge>
    <edge id=":V0019_7" function="internal">
        <lane id=":V0019_7_0" index="0" speed="14.00" length="15.53" shape="324.23,516.42 326.74,512.46 327.16,508.91 327.57,505.36 330.08,501.40"/>
        <lane id=":V0019_7_1" index="1" speed="14.00" length="15.53" shape="324.23,516.42 327.00,512.91 328.29,510.03 329.59,507.16 332.36,503.65"/>
        <lane id=":V0019_7_2" index="2" speed="14.00" length="15.53" shape="324.23,516.42 334.63,505.90"/>
    </edge>
    <edge id=":V0020_0" function="internal">
        <lane id=":V0020_0_0" index="0" speed="17.00" length="17.41" shape="434.14,410.81 434.02,393.40"/>
        <lane id=":V0020_0_1" index="1" speed="17.00" length="17.41" shape="437.34,410.79 437.22,393.38"/>
        <lane id=":V0020_0_2" index="2" speed="17.00" length="17.41" shape="440.54,410.77 440.42,393.36"/>
    </edge>
    <edge id=":V0020_3" function="internal">
        <lane id=":V0020_3_0" index="0" speed="13.35" length="16.60" shape="440.54,410.77 440.75,405.32 441.45,400.87 442.64,397.41 444.33,394.95"/>
    </edge>
    <edge id=":V0020_4" function="internal">
        <lane id=":V0020_4_0" index="0" speed="13.35" length="16.60" shape="430.23,409.22 431.92,406.76 433.11,403.31 433.81,398.85 434.02,393.40"/>
    </edge>
    <edge id=":V0020_5" function="internal">
        <lane id=":V0020_5_0" index="0" speed="14.50" length="20.07" shape="430.23,409.22 444.33,394.95"/>
    </edge>
    <edge id=":V0021_0" function="internal">
        <lane id=":V0021_0_0" index="0" speed="7.00" length="19.05" shape="471.18,495.98 466.95,492.54 464.53,489.59 462.12,486.65 457.89,483.21"/>
        <lane id=":V0021_0_1" index="1" speed="7.00" length="19.05" shape="471.18,495.98 467.13,492.06 465.42,488.27 463.72,484.47 459.67,480.56"/>
    </edge>
    <edge id=":V0021_2" function="internal">
        <lane id=":V0021_2_0" index="0" speed="7.54" length="15.63" shape="472.96,493.32 469.60,490.30 468.42,487.22 469.41,484.07 472.59,480.86"/>
        <lane id=":V0021_2_1" index="1" speed="5.91" length="9.10" shape="474.74,490.66 472.78,488.90 472.10,487.11 472.68,485.28 474.52,483.41"/>
    </edge>
    <edge id=":V0021_4" function="internal">
        <lane id=":V0021_4_0" index="0" speed="6.39" length="10.84" shape="458.15,491.85 460.35,489.62 461.04,487.44 460.22,485.30 457.89,483.21"/>
    </edge>
    <edge id=":V0021_5" function="internal">
        <lane id=":V0021_5_0" index="0" speed="19.50" length="18.39" shape="458.15,491.85 462.16,488.17 464.40,485.08 466.63,482.00 470.65,478.32"/>
        <lane id=":V0021_5_1" index="1" speed="19.50" length="18.39" shape="460.08,494.40 464.10,490.71 466.34,487.63 468.57,484.55 472.59,480.86"/>
        <lane id=":V0021_5_2" index="2" speed="19.50" length="18.39" shape="460.08,494.40 474.52,483.41"/>
    </edge>
    <edge id=":V0022_0" function="internal">
        <lane id=":V0022_0_0" index="0" speed="6.48" length="9.03" shape="313.24,390.08 311.00,389.00 308.97,388.91 307.13,389.79 305.50,391.66"/>
        <lane id=":V0022_0_1" index="1" speed="7.98" length="14.25" shape="315.02,387.42 311.49,385.72 308.29,385.57 305.39,386.97 302.82,389.91"/>
    </edge>
    <edge id=":V0022_2" function="internal">
        <lane id=":V0022_2_0" index="0" speed="15.00" length="17.92" shape="316.80,384.76 312.11,382.22 308.54,381.15 304.97,380.08 300.29,377.54"/>
        <lane id=":V0022_2_1" index="1" speed="15.00" length="17.92" shape="316.80,384.76 302.07,374.89"/>
    </edge>
    <edge id=":V0022_4" function="internal">
        <lane id=":V0022_4_0" index="0" speed="19.00" length="17.99" shape="312.49,375.05 310.01,379.77 308.99,383.35 307.97,386.94 305.50,391.66"/>
        <lane id=":V0022_4_1" index="1" speed="19.00" length="17.99" shape="309.81,373.30 307.33,378.02 306.31,381.61 305.29,385.20 302.82,389.91"/>
        <lane id=":V0022_4_2" index="2" speed="19.00" length="17.99" shape="309.81,373.30 300.14,388.17"/>
    </edge>
    <edge id=":V0022_7" function="internal">
        <lane id=":V0022_7_0" index="0" speed="6.48" length="9.03" shape="309.81,373.30 308.17,375.17 306.34,376.06 304.30,375.96 302.07,374.89"/>
    </edge>
    <edge id=":V0023_0" function="internal">
        <lane id=":V0023_0_0" index="0" speed="10.99" length="18.55" shape="417.95,516.68 421.87,517.98 426.04,517.86 430.48,516.32 435.17,513.36"/>
    </edge>
    <edge id=":V0023_1" function="internal">
        <lane id=":V0023_1_0" index="0" speed="9.00" length="16.01" shape="417.95,516.68 421.36,517.36 425.13,516.86 429.44,516.66 434.51,518.21"/>
        <lane id=":V0023_1_1" index="1" speed="9.00" length="16.01" shape="417.95,516.68 421.19,517.83 424.54,518.36 428.36,519.14 433.01,521.04"/>
        <lane id=":V0023_1_2" index="2" speed="9.00" length="16.01" shape="417.95,516.68 431.51,523.87"/>
    </edge>
    <edge id=":V0023_4" function="internal">
        <lane id=":V0023_4_0" index="0" speed="18.50" length="18.98" shape="418.39,522.11 423.63,518.76 428.11,516.73 431.93,515.20 435.17,513.36"/>
    </edge>
    <edge id=":V0023_5" function="internal">
        <lane id=":V0023_5_0" index="0" speed="9.56" length="13.85" shape="420.33,524.66 424.12,522.15 427.50,520.71 430.47,520.34 433.01,521.04"/>
        <lane id=":V0023_5_1" index="1" speed="8.89" length="11.90" shape="420.33,524.66 422.98,523.13 425.73,522.48 428.57,522.73 431.51,523.87"/>
    </edge>
    <edge id=":V0024_0" function="internal">
        <lane id=":V0024_0_0" index="0" speed="17.50" length="21.79" shape="435.04,535.83 435.99,528.75 438.15,523.32 440.32,518.97 441.29,515.15"/>
    </edge>
    <edge id=":V0024_1" function="internal">
        <lane id=":V0024_1_0" index="0" speed="7.42" length="16.60" shape="438.24,535.81 438.87,530.89 440.84,528.19 444.14,527.69 448.79,529.40"/>
        <lane id=":V0024_1_1" index="1" speed="5.70" length="9.21" shape="441.44,535.78 441.79,533.06 442.88,531.56 444.72,531.28 447.30,532.23"/>
    </edge>
    <edge id=":V0024_3" function="internal">
        <lane id=":V0024_3_0" index="0" speed="5.86" length="9.81" shape="434.69,518.31 437.60,519.43 439.67,519.28 440.90,517.86 441.29,515.15"/>
    </edge>
    <edge id=":V0024_4" function="internal">
        <lane id=":V0024_4_0" index="0" speed="16.00" length="17.66" shape="434.69,518.31 450.29,526.58"/>
        <lane id=":V0024_4_1" index="1" speed="16.00" length="17.66" shape="433.19,521.14 448.79,529.40"/>
        <lane id=":V0024_4_2" index="2" speed="16.00" length="17.66" shape="431.69,523.96 447.30,532.23"/>
    </edge>
    <edge id=":V0025_0" function="internal">
        <lane id=":V0025_0_0" index="0" speed="10.50" length="9.37" shape="515.43,521.79 512.90,520.70 510.86,520.65 508.81,520.60 506.28,519.51"/>
        <lane id=":V0025_0_1" index="1" speed="10.50" length="9.37" shape="517.22,519.14 514.68,518.04 512.64,517.99 510.59,517.95 508.06,516.85"/>
        <lane id=":V0025_0_2" index="2" speed="10.50" length="9.37" shape="517.22,519.14 509.84,514.19"/>
    </edge>
    <edge id=":V0025_3" function="internal">
        <lane id=":V0025_3_0" index="0" speed="5.15" length="5.24" shape="517.22,519.14 516.13,518.17 515.60,517.10 515.64,515.92 516.24,514.64"/>
    </edge>
    <edge id=":V0025_4" function="internal">
        <lane id=":V0025_4_0" index="0" speed="6.52" length="9.04" shape="507.88,527.28 508.93,525.06 509.02,523.02 508.13,521.17 506.28,519.51"/>
    </edge>
    <edge id=":V0025_5" function="internal">
        <lane id=":V0025_5_0" index="0" speed="18.50" length="15.15" shape="507.88,527.28 516.24,514.64"/>
    </edge>
    <edge id=":V0026_0" function="internal">
        <lane id=":V0026_0_0" index="0" speed="10.50" length="44.76" shape="587.40,393.47 594.37,386.66 602.35,376.95 609.87,366.82 615.46,358.72"/>
    </edge>
    <edge id=":V0026_1" function="internal">
        <lane id=":V0026_1_0" index="0" speed="19.00" length="45.25" shape="587.40,393.47 621.41,363.56"/>
        <lane id=":V0026_1_1" index="1" speed="19.00" length="45.25" shape="589.34,396.01 623.35,366.11"/>
        <lane id=":V0026_1_2" index="2" speed="19.00" length="45.25" shape="589.34,396.01 625.29,368.65"/>
    </edge>
    <edge id=":V0026_4" function="internal">
        <lane id=":V0026_4_0" index="0" speed="8.00" length="46.32" shape="592.62,399.08 615.46,358.72"/>
        <lane id=":V0026_4_1" index="1" speed="8.00" length="46.32" shape="592.62,399.08 618.13,360.49"/>
    </edge>
    <edge id=":V0026_6" function="internal">