<nodes><node id="V0001" x="329.95799999999997" y="613.658" type="priority" /><node id="V0002" x="54.624066666666664" y="1017.3466666666667" type="priority" /><node id="V0003" x="498.3226666666667" y="798.0400000000001" type="priority" /><node id="V0004" x="891.7266666666667" y="170.74066666666667" type="priority" /><node id="V0005" x="955.14" y="944.9533333333333" type="priority" /><node id="V0006" x="156.906" y="409.74533333333335" type="priority" /><node id="V0007" x="726.16" y="506.2006666666667" type="priority" /><node id="V0008" x="495.0346666666667" y="340.3426666666667" type="priority" /><node id="V0009" x="782.4466666666667" y="368.17533333333336" type="priority" /><node id="V0010" x="632.962" y="948.1066666666667" type="priority" /><node id="V0011" x="497.41066666666666" y="798.4866666666666" type="priority" /><node id="V0012" x="456.67266666666666" y="610.7353333333334" type="priority" /><node id="V0013" x="497.47666666666663" y="680.2666666666667" type="priority" /><node id="V0014" x="573.1966666666667" y="684.76" type="priority" /><node id="V0015" x="665.948" y="791.7066666666667" type="priority" /><node id="V0016" x="411.3726666666667" y="699.1533333333333" type="priority" /><node id="V0017" x="665.066" y="851.66" type="priority" /><node id="V0018" x="463.12399999999997" y="389.39599999999996" type="priority" /><node id="V0019" x="389.1646666666667" y="679.0066666666667" type="priority" /><node id="V0020" x="496.686" y="570.2666666666667" type="priority" /><node id="V0021" x="526.934" y="657.8446666666666" type="priority" /><node id="V0022" x="360.9073333333333" y="546.5253333333333" type="priority" /><node id="V0023" x="480.3113333333333" y="693.3333333333334" type="priority" /><node id="V0024" x="497.636" y="702.5133333333334" type="priority" /><node id="V0025" x="571.3166666666667" y="687.6" type="priority" /><node id="V0026" x="655.8353333333333" y="559.7293333333333" type="priority" /><node id="V0027" x="548.6713333333333" y="576.688" type="priority" /><node id="V0028" x="606.8240000000001" y="832.9333333333333" type="priority" /><node id="V0029" x="673.4599999999999" y="756.0866666666666" type="priority" /><node id="V0030" x="654.05" y="848.12" type="priority" /><node id="V0031" x="682.1666666666666" y="800.3" type="priority" /><node id="V0032" x="409.18199999999996" y="701.1066666666667" type="priority" /><node id="V0033" x="391.54533333333336" y="676.6" type="priority" /><node id="V0034" x="435.94800000000004" y="727.1" type="priority" /><node id="V0035" x="690.4666666666667" y="374.28799999999995" type="priority" /><node id="V0036" x="497.17199999999997" y="637.8893333333333" type="priority" /><node id="V0037" x="495.3713333333333" y="387.25266666666664" type="priority" /><node id="V0038" x="325.3006666666667" y="601.2606666666667" type="priority" /><node id="V0039" x="441.1573333333333" y="672.5866666666666" type="priority" /><node id="V0040" x="544.9053333333334" y="727.56" type="priority" /><node id="V0041" x="561.1746666666667" y="631.7819999999999" type="priority" /><node id="V0042" x="537.7819999999999" y="528.7046666666666" type="priority" /><node id="V0043" x="574.296" y="689.6" type="priority" /><node id="V0044" x="692.6066666666667" y="768.9266666666666" type="priority" /><node id="V0045" x="434.04533333333336" y="728.5466666666667" type="priority" /><node id="V0046" x="411.20933333333335" y="656.7139999999999" type="priority" /><node id="V0047" x="497.06333333333333" y="622.7193333333333" type="priority" /><node id="V0048" x="487.40066666666667" y="631.338" type="priority" /><node id="V0049" x="505.52733333333333" y="386.57800000000003" type="priority" /><node id="V0050" x="341.648" y="619.8526666666668" type="priority" /><node id="V0051" x="588.106" y="750.4533333333333" type="priority" /></nodes>