<configuration><input><net-file value="23.net.xml" /><route-files value="23.rou.xml" /></input><time><begin value="0" /></time></configuration>