<?xml version="1.0" encoding="UTF-8"?>

<!-- generated on 2023-06-26 02:05:25 by Eclipse SUMO netconvert Version 1.16.0
<configuration xmlns:xsi="http://www.w3.org/2001/XMLSchema-instance" xsi:noNamespaceSchemaLocation="http://sumo.dlr.de/xsd/netconvertConfiguration.xsd">

    <input>
        <node-files value="data/simulationConfigurations/tests/15\15.nod.xml"/>
        <edge-files value="data/simulationConfigurations/tests/15\15.edg.xml"/>
    </input>

    <output>
        <output-file value="data/simulationConfigurations/tests/15\15.net.xml"/>
    </output>

</configuration>
-->

<net version="1.16" junctionCornerDetail="5" limitTurnSpeed="5.50" xmlns:xsi="http://www.w3.org/2001/XMLSchema-instance" xsi:noNamespaceSchemaLocation="http://sumo.dlr.de/xsd/net_file.xsd">

    <location netOffset="-1.20,-211.33" convBoundary="0.00,0.00,989.39,679.81" origBoundary="1.20,211.33,990.59,891.14" projParameter="!"/>

    <edge id=":V0002_0" function="internal">
        <lane id=":V0002_0_0" index="0" speed="4.72" length="7.92" shape="343.81,516.05 342.73,517.80 343.03,518.50 344.73,518.17 347.81,516.80"/>
    </edge>
    <edge id=":V0002_1" function="internal">
        <lane id=":V0002_1_0" index="0" speed="8.13" length="23.55" shape="343.81,516.05 338.26,524.05 336.13,529.52 337.41,532.48 342.11,532.91"/>
    </edge>
    <edge id=":V0002_2" function="internal">
        <lane id=":V0002_2_0" index="0" speed="10.02" length="28.76" shape="341.02,514.43 335.67,522.76 333.98,529.44 335.97,534.45 341.63,537.80"/>
        <lane id=":V0002_2_1" index="1" speed="10.99" length="34.93" shape="338.23,512.80 332.04,522.63 330.37,530.58 333.23,536.65 340.61,540.84"/>
    </edge>
    <edge id=":V0002_4" function="internal">
        <lane id=":V0002_4_0" index="0" speed="7.02" length="20.72" shape="338.23,512.80 332.88,516.30 328.92,516.55 326.35,513.52 325.17,507.24"/>
    </edge>
    <edge id=":V0002_5" function="internal">
        <lane id=":V0002_5_0" index="0" speed="10.70" length="30.07" shape="307.68,530.92 310.52,530.47 313.89,526.18 317.77,518.06 322.18,506.11"/>
        <lane id=":V0002_5_1" index="1" speed="11.02" length="31.94" shape="307.68,530.92 311.77,531.14 316.05,527.27 320.52,519.30 325.17,507.24"/>
    </edge>
    <edge id=":V0002_7" function="internal">
        <lane id=":V0002_7_0" index="0" speed="9.00" length="44.01" shape="307.68,530.92 313.63,532.12 322.54,530.64 334.41,526.49 349.24,519.66"/>
    </edge>
    <edge id=":V0002_8" function="internal">
        <lane id=":V0002_8_0" index="0" speed="6.50" length="34.62" shape="307.68,530.92 314.20,532.36 324.67,533.08 335.25,533.22 342.11,532.91"/>
    </edge>
    <edge id=":V0002_9" function="internal">
        <lane id=":V0002_9_0" index="0" speed="7.50" length="34.52" shape="307.68,530.92 312.82,532.36 320.95,533.49 330.94,535.06 341.63,537.80"/>
        <lane id=":V0002_9_1" index="1" speed="7.50" length="34.52" shape="307.68,530.92 312.66,532.84 320.44,535.01 330.08,537.61 340.61,540.84"/>
        <lane id=":V0002_9_2" index="2" speed="7.50" length="34.52" shape="307.68,530.92 312.50,533.31 319.93,536.53 329.22,540.17 339.59,543.87"/>
    </edge>
    <edge id=":V0003_0" function="internal">
        <lane id=":V0003_0_0" index="0" speed="4.66" length="8.32" shape="984.24,201.61 981.51,203.11 980.67,203.93 981.72,204.07 984.65,203.53"/>
    </edge>
    <edge id=":V0003_1" function="internal">
        <lane id=":V0003_1_0" index="0" speed="7.15" length="16.32" shape="984.24,201.61 988.79,200.06 991.78,200.75 993.20,203.69 993.07,208.86"/>
        <lane id=":V0003_1_1" index="1" speed="6.31" length="12.35" shape="984.24,201.61 987.28,200.69 989.24,201.51 990.11,204.08 989.90,208.40"/>
    </edge>
    <edge id=":V0005_0" function="internal">
        <lane id=":V0005_0_0" index="0" speed="7.77" length="22.54" shape="492.90,8.69 496.01,1.69 499.12,-0.82 502.22,1.18 505.32,7.67"/>
        <lane id=":V0005_0_1" index="1" speed="6.84" length="17.05" shape="492.90,8.69 495.20,3.60 497.53,1.91 499.90,3.62 502.30,8.74"/>
    </edge>
    <edge id=":V0005_2" function="internal">
        <lane id=":V0005_2_0" index="0" speed="4.70" length="8.39" shape="492.90,8.69 494.52,6.67 496.02,6.09 497.38,6.93 498.62,9.21"/>
    </edge>
    <edge id=":V0006_0" function="internal">
        <lane id=":V0006_0_0" index="0" speed="6.49" length="14.05" shape="133.20,651.50 130.26,655.27 129.65,657.99 131.36,659.68 135.39,660.32"/>
    </edge>
    <edge id=":V0006_1" function="internal">
        <lane id=":V0006_1_0" index="0" speed="8.71" length="25.97" shape="130.88,649.29 124.68,655.24 118.63,659.50 113.84,660.28 111.39,655.78"/>
    </edge>
    <edge id=":V0006_2" function="internal">
        <lane id=":V0006_2_0" index="0" speed="10.50" length="21.42" shape="117.24,655.11 118.90,658.64 122.46,661.22 127.93,662.84 135.32,663.52"/>
    </edge>
    <edge id=":V0006_3" function="internal">
        <lane id=":V0006_3_0" index="0" speed="9.77" length="46.74" shape="114.05,655.48 110.86,638.25 109.35,632.56 109.53,638.40 111.39,655.78"/>
    </edge>
    <edge id=":V0006_4" function="internal">
        <lane id=":V0006_4_0" index="0" speed="5.50" length="9.60" shape="133.10,651.42 131.29,653.84 131.08,655.61 132.48,656.70 135.47,657.12"/>
    </edge>
    <edge id=":V0006_5" function="internal">
        <lane id=":V0006_5_0" index="0" speed="8.69" length="25.94" shape="130.79,649.20 124.63,655.18 118.61,659.47 113.83,660.28 111.39,655.78"/>
    </edge>
    <edge id=":V0007_0" function="internal">
        <lane id=":V0007_0_0" index="0" speed="10.89" length="44.05" shape="740.90,650.65 738.46,661.57 730.60,666.70 719.88,666.05 708.87,659.65"/>
        <lane id=":V0007_0_1" index="1" speed="9.99" length="36.82" shape="737.71,650.90 735.61,659.79 728.89,663.53 719.79,662.44 710.52,656.83"/>
    </edge>
    <edge id=":V0007_2" function="internal">
        <lane id=":V0007_2_0" index="0" speed="9.26" length="35.25" shape="733.60,651.78 733.27,660.10 727.06,664.43 717.93,664.40 708.87,659.65"/>
        <lane id=":V0007_2_1" index="1" speed="8.27" length="27.70" shape="730.58,652.85 730.23,659.06 725.14,661.71 717.75,660.92 710.52,656.83"/>
    </edge>
    <edge id=":V0007_4" function="internal">
        <lane id=":V0007_4_0" index="0" speed="4.55" length="7.53" shape="707.67,661.71 710.19,662.61 711.24,662.57 710.80,661.58 708.87,659.65"/>
        <lane id=":V0007_4_1" index="1" speed="8.06" length="28.02" shape="706.04,664.50 715.44,667.84 719.32,667.68 717.68,664.01 710.52,656.83"/>
    </edge>
    <edge id=":V0007_6" function="internal">
        <lane id=":V0007_6_0" index="0" speed="3.81" length="4.54" shape="708.01,661.12 709.56,661.53 710.22,661.43 709.99,660.80 708.87,659.65"/>
        <lane id=":V0007_6_1" index="1" speed="7.30" length="21.95" shape="706.36,663.95 713.85,665.93 717.03,665.41 715.93,662.38 710.52,656.83"/>
    </edge>
    <edge id=":V0007_8" function="internal">
        <lane id=":V0007_8_0" index="0" speed="7.68" length="21.57" shape="703.64,670.96 710.83,670.42 714.09,668.35 713.44,664.77 708.87,659.65"/>
        <lane id=":V0007_8_1" index="1" speed="8.50" length="32.37" shape="703.57,674.16 714.10,673.32 718.77,670.15 717.58,664.66 710.52,656.83"/>
    </edge>
    <edge id=":V0008_0" function="internal">
        <lane id=":V0008_0_0" index="0" speed="15.86" length="18.97" shape="485.04,263.56 485.35,267.63 485.79,272.25 485.06,277.24 481.82,282.41"/>
        <lane id=":V0008_0_1" index="1" speed="15.14" length="18.97" shape="485.04,263.56 484.91,267.37 484.43,271.37 482.87,275.62 479.49,280.22"/>
    </edge>
    <edge id=":V0008_2" function="internal">
        <lane id=":V0008_2_0" index="0" speed="6.53" length="16.56" shape="477.56,271.01 481.59,271.21 483.84,274.08 484.02,278.26 481.82,282.41"/>
        <lane id=":V0008_2_1" index="1" speed="5.87" length="13.02" shape="478.56,274.05 482.29,273.23 483.70,273.98 482.76,276.31 479.49,280.22"/>
    </edge>
    <edge id=":V0009_0" function="internal">
        <lane id=":V0009_0_0" index="0" speed="11.52" length="7.60" shape="82.63,409.77 83.75,407.01 87.43,404.21"/>
    </edge>
    <edge id=":V0009_1" function="internal">
        <lane id=":V0009_1_0" index="0" speed="16.12" length="14.59" shape="82.63,409.77 88.74,409.09 96.82,411.57"/>
    </edge>
    <edge id=":V0009_2" function="internal">
        <lane id=":V0009_2_0" index="0" speed="15.53" length="22.97" shape="82.63,409.77 88.39,409.67 104.12,416.65"/>
    </edge>
    <edge id=":V0009_13" function="internal">
        <lane id=":V0009_13_0" index="0" speed="11.52" length="18.23" shape="87.43,404.21 87.72,403.99 94.54,400.72 104.21,397.20"/>
    </edge>
    <edge id=":V0009_14" function="internal">
        <lane id=":V0009_14_0" index="0" speed="16.12" length="70.06" shape="96.82,411.57 106.02,414.39 131.50,424.12 162.18,436.72"/>
    </edge>
    <edge id=":V0009_15" function="internal">
        <lane id=":V0009_15_0" index="0" speed="15.53" length="60.63" shape="104.12,416.65 104.74,416.93 128.72,429.56 157.40,445.58"/>
    </edge>
    <edge id=":V0009_3" function="internal">
        <lane id=":V0009_3_0" index="0" speed="12.52" length="62.64" shape="107.81,408.38 107.97,410.88 117.08,416.44 135.15,425.05 162.18,436.72"/>
    </edge>
    <edge id=":V0009_4" function="internal">
        <lane id=":V0009_4_0" index="0" speed="12.75" length="61.57" shape="107.81,408.38 110.31,410.53 119.93,416.53 136.68,426.35 160.56,440.02"/>
        <lane id=":V0009_4_1" index="1" speed="13.20" length="66.15" shape="106.82,405.32 106.37,408.50 114.91,415.81 132.44,427.24 158.98,442.80"/>
        <lane id=":V0009_4_2" index="2" speed="13.88" length="73.32" shape="105.84,402.26 102.43,406.47 109.88,415.09 128.20,428.13 157.40,445.58"/>
    </edge>
    <edge id=":V0009_7" function="internal">
        <lane id=":V0009_7_0" index="0" speed="4.44" length="7.76" shape="105.84,402.26 103.54,401.60 102.50,400.54 102.72,399.07 104.21,397.20"/>
    </edge>
    <edge id=":V0009_8" function="internal">
        <lane id=":V0009_8_0" index="0" speed="7.00" length="15.96" shape="89.85,395.87 91.20,398.07 94.05,399.03 98.39,398.74 104.21,397.20"/>
    </edge>
    <edge id=":V0009_9" function="internal">
        <lane id=":V0009_9_0" index="0" speed="11.00" length="83.94" shape="89.85,395.87 95.31,402.77 109.18,411.88 131.47,423.20 162.18,436.72"/>
    </edge>
    <edge id=":V0009_10" function="internal">
        <lane id=":V0009_10_0" index="0" speed="14.00" length="83.51" shape="89.85,395.87 94.64,400.34 108.02,409.19 129.99,422.41 160.56,440.02"/>
        <lane id=":V0009_10_1" index="1" speed="14.00" length="86.03" shape="86.72,396.54 91.72,401.67 105.43,411.09 127.85,424.80 158.98,442.80"/>
        <lane id=":V0009_10_2" index="2" speed="14.00" length="88.57" shape="83.59,397.21 88.80,403.00 102.83,412.99 125.70,427.18 157.40,445.58"/>
    </edge>
    <edge id=":V0010_0" function="internal">
        <lane id=":V0010_0_0" index="0" speed="5.46" length="10.42" shape="19.65,43.61 16.86,41.54 15.13,41.31 14.47,42.92 14.88,46.37"/>
        <lane id=":V0010_0_1" index="1" speed="6.63" length="16.19" shape="19.65,43.61 15.14,40.22 12.32,39.65 11.19,41.93 11.75,47.04"/>
        <lane id=":V0010_0_2" index="2" speed="7.62" length="21.98" shape="19.65,43.61 13.42,38.89 9.51,38.00 7.91,40.93 8.61,47.70"/>
    </edge>
    <edge id=":V0010_3" function="internal">
        <lane id=":V0010_3_0" index="0" speed="7.88" length="23.22" shape="21.79,41.24 15.59,36.67 11.64,36.16 9.95,39.70 10.51,47.30"/>
        <lane id=":V0010_3_1" index="1" speed="9.46" length="34.26" shape="23.93,38.86 14.81,32.15 9.02,31.44 6.54,36.71 7.38,47.96"/>
    </edge>
    <edge id=":V0011_0" function="internal">
        <lane id=":V0011_0_0" index="0" speed="6.36" length="9.04" shape="435.08,408.92 433.00,407.53 431.02,407.18 429.12,407.87 427.31,409.60"/>
    </edge>
    <edge id=":V0011_1" function="internal">
        <lane id=":V0011_1_0" index="0" speed="13.00" length="17.84" shape="435.08,408.92 421.82,396.99"/>
    </edge>
    <edge id=":V0011_2" function="internal">
        <lane id=":V0011_2_0" index="0" speed="7.00" length="12.04" shape="434.63,400.26 427.31,409.60"/>
        <lane id=":V0011_2_1" index="1" speed="7.00" length="12.04" shape="432.11,398.29 424.79,407.62"/>
        <lane id=":V0011_2_2" index="2" speed="7.00" length="12.04" shape="432.11,398.29 429.51,400.80 427.19,401.97 424.88,403.14 422.27,405.65"/>
    </edge>
    <edge id=":V0011_5" function="internal">
        <lane id=":V0011_5_0" index="0" speed="6.36" length="9.04" shape="429.59,396.31 427.79,398.04 425.89,398.73 423.90,398.38 421.82,396.99"/>
    </edge>
    <edge id=":V0012_0" function="internal">
        <lane id=":V0012_0_0" index="0" speed="6.74" length="10.68" shape="636.15,367.25 637.62,370.32 639.42,372.14 641.53,372.72 643.97,372.04"/>
    </edge>
    <edge id=":V0012_1" function="internal">
        <lane id=":V0012_1_0" index="0" speed="15.50" length="14.76" shape="633.14,368.32 635.06,372.24 637.06,374.60 639.06,376.95 640.98,380.87"/>
        <lane id=":V0012_1_1" index="1" speed="15.50" length="14.76" shape="630.12,369.39 632.04,373.31 634.04,375.66 636.04,378.02 637.96,381.94"/>
        <lane id=":V0012_1_2" index="2" speed="15.50" length="14.76" shape="630.12,369.39 634.95,383.01"/>
    </edge>
    <edge id=":V0012_4" function="internal">
        <lane id=":V0012_4_0" index="0" speed="24.50" length="18.41" shape="626.38,377.27 631.96,375.04 636.57,373.96 640.49,373.23 643.97,372.04"/>
    </edge>
    <edge id=":V0012_5" function="internal">
        <lane id=":V0012_5_0" index="0" speed="7.09" length="11.96" shape="627.81,380.13 631.47,378.73 634.39,378.56 636.55,379.63 637.96,381.94"/>
        <lane id=":V0012_5_1" index="1" speed="6.25" length="9.05" shape="627.81,380.13 630.20,379.34 632.19,379.55 633.77,380.78 634.95,383.01"/>
    </edge>
    <edge id=":V0013_0" function="internal">
        <lane id=":V0013_0_0" index="0" speed="15.50" length="51.11" shape="367.00,406.87 331.69,443.82"/>
        <lane id=":V0013_0_1" index="1" speed="15.50" length="51.11" shape="364.69,404.66 329.38,441.61"/>
    </edge>
    <edge id=":V0013_2" function="internal">
        <lane id=":V0013_2_0" index="0" speed="5.14" length="7.99" shape="364.69,404.66 361.40,407.94 359.25,409.68 358.68,409.79"/>
    </edge>
    <edge id=":V0013_7" function="internal">
        <lane id=":V0013_7_0" index="0" speed="5.14" length="1.79" shape="358.68,409.79 358.24,409.88 358.38,408.55"/>
    </edge>
    <edge id=":V0013_3" function="internal">
        <lane id=":V0013_3_0" index="0" speed="5.65" length="12.20" shape="338.17,448.55 339.25,444.41 338.91,442.62 337.16,443.16 334.01,446.03"/>
        <lane id=":V0013_3_1" index="1" speed="8.20" length="27.86" shape="341.20,449.57 343.66,440.13 342.90,436.02 338.91,437.25 331.69,443.82"/>
    </edge>
    <edge id=":V0013_5" function="internal">
        <lane id=":V0013_5_0" index="0" speed="17.00" length="44.41" shape="344.23,450.59 355.34,407.53"/>
        <lane id=":V0013_5_1" index="1" speed="17.00" length="44.41" shape="344.23,450.59 358.38,408.55"/>
    </edge>
    <edge id=":V0014_0" function="internal">
        <lane id=":V0014_0_0" index="0" speed="14.00" length="19.93" shape="337.73,329.91 333.83,325.72 331.71,322.34 329.60,318.96 325.70,314.78"/>
        <lane id=":V0014_0_1" index="1" speed="14.00" length="19.93" shape="337.73,329.91 334.08,325.28 332.78,321.15 331.49,317.02 327.84,312.40"/>
    </edge>
    <edge id=":V0014_2" function="internal">
        <lane id=":V0014_2_0" index="0" speed="7.41" length="16.78" shape="339.87,327.53 336.60,323.69 335.94,320.41 337.87,317.67 342.40,315.48"/>
        <lane id=":V0014_2_1" index="1" speed="5.67" length="9.24" shape="342.01,325.15 340.21,323.04 339.84,321.23 340.91,319.72 343.40,318.51"/>
    </edge>
    <edge id=":V0014_4" function="internal">
        <lane id=":V0014_4_0" index="0" speed="6.02" length="10.58" shape="323.56,325.04 325.96,323.76 326.77,322.02 325.96,319.81 323.56,317.15"/>
    </edge>
    <edge id=":V0014_5" function="internal">
        <lane id=":V0014_5_0" index="0" speed="15.00" length="21.37" shape="323.56,325.04 326.89,322.90 330.37,319.43 334.90,315.63 341.40,312.44"/>
        <lane id=":V0014_5_1" index="1" speed="15.00" length="21.37" shape="323.56,325.04 327.09,323.35 331.00,320.91 335.89,318.14 342.40,315.48"/>
        <lane id=":V0014_5_2" index="2" speed="15.00" length="21.37" shape="323.56,325.04 343.40,318.51"/>
    </edge>
    <edge id=":V0015_0" function="internal">
        <lane id=":V0015_0_0" index="0" speed="5.47" length="7.18" shape="276.83,499.32 270.33,502.36"/>
    </edge>
    <edge id=":V0015_1" function="internal">
        <lane id=":V0015_1_0" index="0" speed="15.00" length="19.43" shape="276.83,499.32 263.49,513.44"/>
        <lane id=":V0015_1_1" index="1" speed="15.00" length="19.43" shape="274.51,497.13 261.16,511.24"/>
    </edge>
    <edge id=":V0015_3" function="internal">
        <lane id=":V0015_3_0" index="0" speed="13.50" length="9.98" shape="263.22,498.31 265.16,499.98 265.98,501.72 266.81,503.46 268.74,505.14"/>
        <lane id=":V0015_3_1" index="1" speed="13.50" length="9.98" shape="263.22,498.31 265.10,500.53 265.19,503.11 265.27,505.69 267.15,507.92"/>
    </edge>
    <edge id=":V0015_5" function="internal">
        <lane id=":V0015_5_0" index="0" speed="7.64" length="15.20" shape="261.64,501.09 265.05,503.74 266.50,506.68 265.98,509.91 263.49,513.44"/>
        <lane id=":V0015_5_1" index="1" speed="6.05" length="9.07" shape="260.06,503.87 262.10,505.45 262.96,507.21 262.65,509.14 261.16,511.24"/>
    </edge>
    <edge id=":V0016_0" function="internal">
        <lane id=":V0016_0_0" index="0" speed="8.48" length="14.31" shape="715.11,264.48 711.51,265.84 709.03,268.03 707.68,271.04 707.46,274.89"/>
    </edge>
    <edge id=":V0016_1" function="internal">
        <lane id=":V0016_1_0" index="0" speed="13.00" length="14.54" shape="715.11,264.48 711.99,265.70 709.34,267.43 706.26,269.25 701.85,270.76"/>
        <lane id=":V0016_1_1" index="1" speed="13.00" length="14.54" shape="715.11,264.48 701.15,267.64"/>
    </edge>
    <edge id=":V0016_3" function="internal">
        <lane id=":V0016_3_0" index="0" speed="16.00" length="14.75" shape="709.50,260.36 709.37,265.01 708.55,268.50 707.69,271.54 707.46,274.89"/>
    </edge>
    <edge id=":V0016_4" function="internal">
        <lane id=":V0016_4_0" index="0" speed="7.07" length="9.66" shape="706.31,260.62 706.16,263.21 705.25,265.25 703.58,266.72 701.15,267.64"/>
    </edge>
    <edge id=":V0017_0" function="internal">
        <lane id=":V0017_0_0" index="0" speed="18.50" length="26.76" shape="366.59,522.34 370.82,523.01 376.62,522.48 384.02,521.27 393.07,519.90"/>
    </edge>
    <edge id=":V0017_1" function="internal">
        <lane id=":V0017_1_0" index="0" speed="17.00" length="27.79" shape="366.59,522.34 371.42,523.82 378.25,525.48 385.94,527.51 393.37,530.08"/>
        <lane id=":V0017_1_1" index="1" speed="17.00" length="27.79" shape="366.59,522.34 392.13,533.03"/>
    </edge>
    <edge id=":V0017_3" function="internal">
        <lane id=":V0017_3_0" index="0" speed="14.00" length="21.77" shape="372.76,528.97 376.47,527.48 380.64,524.73 385.94,521.83 393.07,519.90"/>
        <lane id=":V0017_3_1" index="1" speed="14.00" length="21.77" shape="372.76,528.97 376.58,527.97 380.97,526.30 386.43,524.49 393.48,523.08"/>
        <lane id=":V0017_3_2" index="2" speed="14.00" length="21.77" shape="372.76,528.97 393.89,526.25"/>
    </edge>
    <edge id=":V0017_6" function="internal">
        <lane id=":V0017_6_0" index="0" speed="12.50" length="20.02" shape="372.76,528.97 376.59,528.80 380.88,529.33 385.95,530.70 392.13,533.03"/>
    </edge>
    <edge id=":V0018_0" function="internal">
        <lane id=":V0018_0_0" index="0" speed="10.85" length="15.34" shape="587.15,205.81 583.72,210.47 581.43,214.24 580.28,217.14 580.27,219.16"/>
        <lane id=":V0018_0_1" index="1" speed="11.88" length="18.48" shape="584.63,203.83 580.76,209.20 578.25,213.72 577.08,217.40 577.26,220.23"/>
    </edge>
    <edge id=":V0018_2" function="internal">
        <lane id=":V0018_2_0" index="0" speed="20.00" length="19.99" shape="582.11,201.86 578.85,206.83 577.25,210.66 575.65,214.48 572.40,219.43"/>
        <lane id=":V0018_2_1" index="1" speed="20.00" length="19.99" shape="582.11,201.86 569.88,217.46"/>
    </edge>
    <edge id=":V0018_4" function="internal">
        <lane id=":V0018_4_0" index="0" speed="21.00" length="18.44" shape="577.25,201.06 578.59,206.32 578.76,210.11 578.94,213.90 580.27,219.16"/>
        <lane id=":V0018_4_1" index="1" speed="21.00" length="18.44" shape="574.24,202.13 575.57,207.39 575.75,211.18 575.92,214.97 577.26,220.23"/>
    </edge>
    <edge id=":V0018_6" function="internal">
        <lane id=":V0018_6_0" index="0" speed="10.72" length="14.95" shape="571.22,203.20 572.29,207.33 572.42,211.09 571.61,214.46 569.88,217.46"/>
    </edge>
    <edge id=":V0019_0" function="internal">
        <lane id=":V0019_0_0" index="0" speed="5.18" length="6.44" shape="353.60,503.58 352.06,505.72 351.21,507.36 351.06,508.49 351.59,509.11"/>
    </edge>
    <edge id=":V0019_1" function="internal">
        <lane id=":V0019_1_0" index="0" speed="15.50" length="16.10" shape="353.60,503.58 343.93,515.90"/>
        <lane id=":V0019_1_1" index="1" speed="15.50" length="16.10" shape="351.08,501.60 341.14,514.27"/>
        <lane id=":V0019_1_2" index="2" speed="15.50" length="16.10" shape="348.56,499.63 338.35,512.64"/>
    </edge>
    <edge id=":V0019_4" function="internal">
        <lane id=":V0019_4_0" index="0" speed="10.00" length="16.59" shape="333.99,508.68 337.41,509.57 341.01,509.88 345.19,510.44 350.35,512.06"/>
        <lane id=":V0019_4_1" index="1" speed="10.00" length="16.59" shape="333.99,508.68 349.12,515.02"/>
    </edge>
    <edge id=":V0019_6" function="internal">
        <lane id=":V0019_6_0" index="0" speed="6.20" length="9.76" shape="333.99,508.68 337.69,510.39 340.12,511.89 341.27,513.19 341.14,514.27"/>
        <lane id=":V0019_6_1" index="1" speed="5.20" length="6.50" shape="333.99,508.68 336.37,509.81 337.89,510.85 338.55,511.79 338.35,512.64"/>
    </edge>
    <edge id=":V0020_0" function="internal">
        <lane id=":V0020_0_0" index="0" speed="8.50" length="16.47" shape="483.87,461.45 480.80,457.33 479.62,453.32 478.88,449.69 477.10,446.74"/>
    </edge>
    <edge id=":V0020_1" function="internal">
        <lane id=":V0020_1_0" index="0" speed="7.50" length="15.87" shape="486.01,459.07 483.04,455.53 482.33,452.30 483.87,449.37 487.68,446.74"/>
        <lane id=":V0020_1_1" index="1" speed="5.85" length="9.12" shape="488.15,456.69 486.44,454.66 486.03,452.80 486.92,451.11 489.11,449.60"/>
    </edge>
    <edge id=":V0020_3" function="internal">
        <lane id=":V0020_3_0" index="0" speed="7.28" length="14.87" shape="472.74,457.80 477.02,455.10 479.18,452.36 479.20,449.57 477.10,446.74"/>
    </edge>
    <edge id=":V0020_4" function="internal">
        <lane id=":V0020_4_0" index="0" speed="20.00" length="18.48" shape="472.74,457.80 475.79,455.72 478.77,452.99 482.47,449.91 487.68,446.74"/>
        <lane id=":V0020_4_1" index="1" speed="20.00" length="18.48" shape="472.74,457.80 489.11,449.60"/>
    </edge>
    <edge id=":V0021_0" function="internal">
        <lane id=":V0021_0_0" index="0" speed="5.84" length="9.13" shape="712.00,331.36 712.58,333.96 713.81,335.41 715.69,335.71 718.21,334.85"/>
    </edge>
    <edge id=":V0021_1" function="internal">
        <lane id=":V0021_1_0" index="0" speed="22.00" length="12.74" shape="712.00,331.36 713.02,344.06"/>
    </edge>
    <edge id=":V0021_2" function="internal">
        <lane id=":V0021_2_0" index="0" speed="18.00" length="12.74" shape="706.82,340.56 718.21,334.85"/>
    </edge>
    <edge id=":V0021_3" function="internal">
        <lane id=":V0021_3_0" index="0" speed="5.84" length="9.13" shape="706.82,340.56 709.34,339.71 711.22,340.01 712.44,341.46 713.02,344.06"/>
    </edge>
    <edge id=":V0022_0" function="internal">
        <lane id=":V0022_0_0" index="0" speed="6.56" length="7.70" shape="675.78,479.06 676.72,480.89 678.03,482.11 679.71,482.73 681.77,482.74"/>
    </edge>
    <edge id=":V0022_1" function="internal">
        <lane id=":V0022_1_0" index="0" speed="18.00" length="15.59" shape="672.76,480.13 677.97,494.82"/>
        <lane id=":V0022_1_1" index="1" speed="18.00" length="15.59" shape="669.74,481.20 674.95,495.89"/>
    </edge>
    <edge id=":V0022_3" function="internal">
        <lane id=":V0022_3_0" index="0" speed="10.50" length="15.57" shape="667.81,490.99 670.95,489.58 673.63,487.02 676.89,484.38 681.77,482.74"/>
        <lane id=":V0022_3_1" index="1" speed="10.50" length="15.57" shape="667.81,490.99 671.09,490.07 674.02,488.58 677.44,487.03 682.18,485.92"/>
        <lane id=":V0022_3_2" index="2" speed="10.50" length="15.57" shape="667.81,490.99 682.59,489.09"/>
    </edge>
    <edge id=":V0022_6" function="internal">
        <lane id=":V0022_6_0" index="0" speed="7.20" length="9.47" shape="667.81,490.99 670.20,491.05 672.18,491.88 673.76,493.50 674.95,495.89"/>
    </edge>
    <edge id=":V0023_0" function="internal">
        <lane id=":V0023_0_0" index="0" speed="6.36" length="9.04" shape="315.67,497.54 318.09,498.16 320.08,497.84 321.64,496.56 322.77,494.32"/>
        <lane id=":V0023_0_1" index="1" speed="7.88" length="14.47" shape="314.43,500.49 318.31,501.49 321.50,500.97 323.99,498.92 325.80,495.35"/>
    </edge>
    <edge id=":V0023_2" function="internal">
        <lane id=":V0023_2_0" index="0" speed="10.00" length="18.09" shape="314.43,500.49 331.11,507.47"/>
    </edge>
    <edge id=":V0023_3" function="internal">
        <lane id=":V0023_3_0" index="0" speed="17.50" length="11.21" shape="322.24,505.92 325.80,495.35"/>
        <lane id=":V0023_3_1" index="1" speed="17.50" length="11.21" shape="325.24,507.05 328.83,496.37"/>
    </edge>
    <edge id=":V0023_5" function="internal">
        <lane id=":V0023_5_0" index="0" speed="5.45" length="6.35" shape="325.24,507.05 325.83,506.41 327.01,506.26 328.77,506.62 331.11,507.47"/>
    </edge>
    <edge id=":V0024_0" function="internal">
        <lane id=":V0024_0_0" index="0" speed="11.69" length="16.04" shape="383.56,298.57 389.43,296.49 393.75,294.63 396.52,292.98 397.74,291.54"/>
    </edge>
    <edge id=":V0024_1" function="internal">
        <lane id=":V0024_1_0" index="0" speed="22.50" length="16.79" shape="384.56,301.61 400.51,296.36"/>
        <lane id=":V0024_1_1" index="1" speed="22.50" length="16.79" shape="385.56,304.65 401.51,299.40"/>
    </edge>
    <edge id=":V0024_3" function="internal">
        <lane id=":V0024_3_0" index="0" speed="20.00" length="18.72" shape="388.84,307.95 391.27,302.32 393.81,298.20 396.10,294.86 397.74,291.54"/>
    </edge>
    <edge id=":V0024_4" function="internal">
        <lane id=":V0024_4_0" index="0" speed="10.99" length="14.09" shape="391.88,308.97 393.39,305.67 395.50,302.98 398.20,300.89 401.51,299.40"/>
    </edge>
    <edge id=":V0025_0" function="internal">
        <lane id=":V0025_0_0" index="0" speed="8.11" length="14.28" shape="403.92,380.88 400.70,378.72 397.53,378.09 394.41,378.99 391.33,381.42"/>
    </edge>
    <edge id=":V0025_1" function="internal">
        <lane id=":V0025_1_0" index="0" speed="15.50" length="13.26" shape="403.92,380.88 401.21,379.11 398.49,378.14 395.53,376.96 392.11,374.55"/>
        <lane id=":V0025_1_1" index="1" speed="15.50" length="13.26" shape="403.92,380.88 394.25,372.17"/>
    </edge>
    <edge id=":V0025_3" function="internal">
        <lane id=":V0025_3_0" index="0" speed="8.00" length="15.57" shape="403.63,373.18 400.27,375.97 397.48,377.30 394.69,378.63 391.33,381.42"/>
        <lane id=":V0025_3_1" index="1" speed="8.00" length="15.57" shape="403.63,373.18 399.82,375.73 396.33,376.19 392.84,376.66 389.02,379.21"/>
    </edge>
    <edge id=":V0025_5" function="internal">
        <lane id=":V0025_5_0" index="0" speed="7.14" length="10.84" shape="401.32,370.97 398.46,373.59 395.97,375.06 393.85,375.38 392.11,374.55"/>
        <lane id=":V0025_5_1" index="1" speed="5.51" length="6.05" shape="399.01,368.76 397.23,370.52 395.84,371.68 394.85,372.23 394.25,372.17"/>
    </edge>
    <edge id=":V0026_0" function="internal">
        <lane id=":V0026_0_0" index="0" speed="6.95" length="12.43" shape="279.22,503.35 276.46,506.77 275.24,509.64 275.56,511.96 277.42,513.73"/>
    </edge>
    <edge id=":V0026_1" function="internal">
        <lane id=":V0026_1_0" index="0" speed="20.00" length="17.89" shape="276.91,501.14 264.55,514.07"/>
        <lane id=":V0026_1_1" index="1" speed="20.00" length="17.89" shape="274.60,498.93 262.23,511.86"/>
    </edge>
    <edge id=":V0026_3" function="internal">
        <lane id=":V0026_3_0" index="0" speed="6.00" length="13.60" shape="270.50,502.46 273.39,505.26 274.48,508.40 275.31,511.39 277.42,513.73"/>
    </edge>
    <edge id=":V0026_4" function="internal">
        <lane id=":V0026_4_0" index="0" speed="6.51" length="10.71" shape="268.92,505.24 269.63,506.36 269.14,508.20 267.45,510.77 264.55,514.07"/>
        <lane id=":V0026_4_1" index="1" speed="5.20" length="6.38" shape="267.33,508.02 262.23,511.86"/>
    </edge>
    <edge id=":V0027_0" function="internal">
        <lane id=":V0027_0_0" index="0" speed="14.08" length="11.61" shape="439.36,326.84 436.28,327.74 434.00,328.91 432.00,330.56 429.73,332.88"/>
    </edge>
    <edge id=":V0027_1" function="internal">
        <lane id=":V0027_1_0" index="0" speed="10.00" length="11.87" shape="439.36,326.84 427.78,329.46"/>
    </edge>
    <edge id=":V0027_2" function="internal">
        <lane id=":V0027_2_0" index="0" speed="21.00" length="18.61" shape="444.60,321.79 440.07,325.86 436.06,328.50 432.60,330.56 429.73,332.88"/>
    </edge>
    <edge id=":V0027_3" function="internal">