<nodes><node id="V0001" x="690.0266666666666" y="274.55266666666665" type="priority" /><node id="V0002" x="317.78333333333336" y="749.1466666666668" type="priority" /><node id="V0003" x="990.5933333333334" y="412.1546666666666" type="priority" /><node id="V0004" x="953.4466666666667" y="667.34" type="priority" /><node id="V0005" x="498.7133333333333" y="211.33466666666666" type="priority" /><node id="V0006" x="115.238" y="875.94" type="priority" /><node id="V0007" x="739.64" y="891.14" type="priority" /><node id="V0008" x="484.064" y="485.65933333333334" type="priority" /><node id="V0009" x="84.96333333333334" y="616.946" type="priority" /><node id="V0010" x="1.2044666666666666" y="226.504" type="priority" /><node id="V0011" x="427.07" y="609.8093333333333" type="priority" /><node id="V0012" x="633.306" y="591.1080000000001" type="priority" /><node id="V0013" x="361.97533333333337" y="617.784" type="priority" /><node id="V0014" x="341.30933333333337" y="532.6193333333333" type="priority" /><node id="V0015" x="263.95" y="718.5733333333334" type="priority" /><node id="V0016" x="706.2733333333333" y="476.44800000000004" type="priority" /><node id="V0017" x="381.13666666666666" y="740.9933333333333" type="priority" /><node id="V0018" x="573.686" y="422.88199999999995" type="priority" /><node id="V0019" x="338.26266666666663" y="723.0333333333333" type="priority" /><node id="V0020" x="487.45533333333333" y="664.16" type="priority" /><node id="V0021" x="712.3133333333334" y="551.5353333333334" type="priority" /><node id="V0022" x="673.1066666666667" y="703.4133333333334" type="priority" /><node id="V0023" x="328.0113333333333" y="718.74" type="priority" /><node id="V0024" x="396.7633333333333" y="514.3773333333334" type="priority" /><node id="V0025" x="396.17466666666667" y="582.0020000000001" type="priority" /><node id="V0026" x="265.0453333333333" y="719.2" type="priority" /><node id="V0027" x="434.7426666666667" y="537.8493333333333" type="priority" /><node id="V0028" x="494.026" y="524.4433333333333" type="priority" /><node id="V0029" x="566.8080000000001" y="403.474" type="priority" /><node id="V0030" x="601.0986666666666" y="500.23133333333334" type="priority" /><node id="V0031" x="355.4993333333333" y="730.2533333333333" type="priority" /><node id="V0032" x="548.8386666666667" y="719.4066666666666" type="priority" /><node id="V0033" x="724.0066666666667" y="696.8666666666667" type="priority" /><node id="V0034" x="283.358" y="700.0400000000001" type="priority" /><node id="V0035" x="379.164" y="566.6913333333334" type="priority" /><node id="V0036" x="282.00466666666665" y="699.4733333333334" type="priority" /><node id="V0037" x="385.08933333333334" y="549.078" type="priority" /><node id="V0038" x="439.37600000000003" y="536.802" type="priority" /><node id="V0039" x="363.508" y="613.2273333333334" type="priority" /><node id="V0040" x="394.46866666666665" y="580.466" type="priority" /><node id="V0041" x="364.714" y="553.6853333333333" type="priority" /></nodes>