<configuration><input><net-file value="15.net.xml" /><route-files value="15.rou.xml" /></input><time><begin value="0" /></time></configuration>