<edges><edge id="E0003" from="V0001" to="V0003" numLanes="1" speed="23.0" /><edge id="E0023" from="V0009" to="V0002" numLanes="3" speed="21.0" /><edge id="E0033" from="V0008" to="V0002" numLanes="3" speed="24.0" /><edge id="E0041" from="V0001" to="V0011" numLanes="3" speed="21.0" /><edge id="E0045" from="V0003" to="V0011" numLanes="1" speed="16.0" /><edge id="E0047" from="V0011" to="V0004" numLanes="3" speed="11.0" /><edge id="E0050" from="V0001" to="V0013" numLanes="1" speed="26.0" /><edge id="E0055" from="V0013" to="V0010" numLanes="2" speed="12.0" /><edge id="E0065" from="V0006" to="V0016" numLanes="3" speed="17.0" /><edge id="E0068" from="V0017" to="V0009" numLanes="1" speed="16.0" /><edge id="E0070" from="V0007" to="V0018" numLanes="1" speed="7.0" /><edge id="E0073" from="V0005" to="V0018" numLanes="3" speed="19.0" /><edge id="E0074" from="V0004" to="V0019" numLanes="3" speed="14.0" /><edge id="E0077" from="V0011" to="V0019" numLanes="2" speed="17.0" /><edge id="E0079" from="V0019" to="V0002" numLanes="1" speed="8.0" /><edge id="E0078" from="V0002" to="V0020" numLanes="3" speed="12.0" /><edge id="E0083" from="V0020" to="V0008" numLanes="3" speed="16.0" /><edge id="E0082" from="V0002" to="V0021" numLanes="1" speed="17.0" /><edge id="E0084" from="V0021" to="V0012" numLanes="1" speed="8.0" /><edge id="E0087" from="V0021" to="V0020" numLanes="2" speed="24.0" /><edge id="E0086" from="V0012" to="V0022" numLanes="3" speed="20.0" /><edge id="E0089" from="V0016" to="V0022" numLanes="3" speed="20.0" /><edge id="E0090" from="V0012" to="V0023" numLanes="2" speed="14.0" /><edge id="E0092" from="V0023" to="V0006" numLanes="3" speed="14.0" /><edge id="E0093" from="V0016" to="V0023" numLanes="1" speed="25.0" /><edge id="E0099" from="V0024" to="V0010" numLanes="2" speed="11.0" /><edge id="E0100" from="V0025" to="V0013" numLanes="2" speed="23.0" /><edge id="E0103" from="V0025" to="V0001" numLanes="2" speed="7.0" /><edge id="E0102" from="V0007" to="V0026" numLanes="1" speed="16.0" /><edge id="E0104" from="V0026" to="V0014" numLanes="2" speed="22.0" /><edge id="E0105" from="V0018" to="V0026" numLanes="3" speed="15.0" /><edge id="E0106" from="V0005" to="V0027" numLanes="2" speed="14.0" /><edge id="E0108" from="V0027" to="V0014" numLanes="2" speed="12.0" /><edge id="E0109" from="V0018" to="V0027" numLanes="2" speed="19.0" /><edge id="E0112" from="V0028" to="V0015" numLanes="3" speed="16.0" /><edge id="E0114" from="V0015" to="V0029" numLanes="3" speed="11.0" /><edge id="E0116" from="V0029" to="V0009" numLanes="2" speed="23.0" /><edge id="E0119" from="V0029" to="V0017" numLanes="3" speed="23.0" /><edge id="E0118" from="V0002" to="V0030" numLanes="3" speed="24.0" /><edge id="E0120" from="V0030" to="V0015" numLanes="1" speed="12.0" /><edge id="E0123" from="V0030" to="V0029" numLanes="2" speed="13.0" /><edge id="E0122" from="V0005" to="V0031" numLanes="3" speed="5.0" /><edge id="E0124" from="V0031" to="V0016" numLanes="1" speed="15.0" /><edge id="E0127" from="V0031" to="V0006" numLanes="3" speed="12.0" /><edge id="E0126" from="V0010" to="V0032" numLanes="1" speed="11.0" /><edge id="E0129" from="V0024" to="V0032" numLanes="1" speed="12.0" /><edge id="E0130" from="V0017" to="V0033" numLanes="2" speed="10.0" /><edge id="E0132" from="V0033" to="V0012" numLanes="3" speed="17.0" /><edge id="E0135" from="V0033" to="V0021" numLanes="1" speed="24.0" /><edge id="E0134" from="V0020" to="V0034" numLanes="3" speed="20.0" /><edge id="E0136" from="V0034" to="V0006" numLanes="3" speed="8.0" /><edge id="E0137" from="V0023" to="V0034" numLanes="1" speed="10.0" /><edge id="E0139" from="V0034" to="V0008" numLanes="1" speed="21.0" /><edge id="E0138" from="V0022" to="V0035" numLanes="1" speed="9.0" /><edge id="E0140" from="V0035" to="V0005" numLanes="2" speed="24.0" /><edge id="E0141" from="V0027" to="V0035" numLanes="1" speed="10.0" /><edge id="E0143" from="V0035" to="V0031" numLanes="2" speed="13.0" /><edge id="E0145" from="V0014" to="V0036" numLanes="3" speed="13.0" /><edge id="E0146" from="V0013" to="V0037" numLanes="3" speed="16.0" /><edge id="E0148" from="V0037" to="V0024" numLanes="2" speed="12.0" /><edge id="E0151" from="V0037" to="V0010" numLanes="1" speed="24.0" /><edge id="E0150" from="V0015" to="V0038" numLanes="2" speed="25.0" /><edge id="E0152" from="V0038" to="V0024" numLanes="3" speed="11.0" /><edge id="E0154" from="V0003" to="V0039" numLanes="3" speed="8.0" /><edge id="E0156" from="V0039" to="V0025" numLanes="2" speed="15.0" /><edge id="E0157" from="V0001" to="V0039" numLanes="1" speed="6.0" /><edge id="E0159" from="V0039" to="V0028" numLanes="2" speed="25.0" /><edge id="E0158" from="V0026" to="V0040" numLanes="3" speed="25.0" /><edge id="E0160" from="V0040" to="V0010" numLanes="2" speed="12.0" /><edge id="E0163" from="V0040" to="V0007" numLanes="2" speed="9.0" /><edge id="E0162" from="V0019" to="V0041" numLanes="2" speed="12.0" /><edge id="E0164" from="V0041" to="V0028" numLanes="1" speed="8.0" /><edge id="E0165" from="V0003" to="V0041" numLanes="1" speed="14.0" /><edge id="E0167" from="V0041" to="V0030" numLanes="1" speed="22.0" /><edge id="E0166" from="V0032" to="V0042" numLanes="2" speed="21.0" /><edge id="E0168" from="V0042" to="V0017" numLanes="1" speed="16.0" /><edge id="E0169" from="V0036" to="V0042" numLanes="3" speed="20.0" /><edge id="E0171" from="V0042" to="V0038" numLanes="1" speed="23.0" /><edge id="E0170" from="V0014" to="V0043" numLanes="2" speed="24.0" /><edge id="E0172" from="V0043" to="V0033" numLanes="2" speed="11.0" /><edge id="E0173" from="V0022" to="V0043" numLanes="2" speed="23.0" /><edge id="E0175" from="V0043" to="V0036" numLanes="3" speed="24.0" /><edge id="E0174" from="V0036" to="V0044" numLanes="2" speed="12.0" /><edge id="E0176" from="V0044" to="V0010" numLanes="2" speed="16.0" /><edge id="E0177" from="V0032" to="V0044" numLanes="3" speed="10.0" /><edge id="E0179" from="V0044" to="V0040" numLanes="3" speed="10.0" /><edge id="E0178" from="V0028" to="V0045" numLanes="1" speed="15.0" /><edge id="E0180" from="V0045" to="V0037" numLanes="2" speed="26.0" /><edge id="E0181" from="V0038" to="V0045" numLanes="3" speed="21.0" /><edge id="E0183" from="V0045" to="V0025" numLanes="3" speed="23.0" /></edges>