<?xml version="1.0" encoding="UTF-8"?>

<!-- generated on 2023-06-26 02:05:20 by Eclipse SUMO netconvert Version 1.16.0
<configuration xmlns:xsi="http://www.w3.org/2001/XMLSchema-instance" xsi:noNamespaceSchemaLocation="http://sumo.dlr.de/xsd/netconvertConfiguration.xsd">

    <input>
        <node-files value="data/simulationConfigurations/tests/0\0.nod.xml"/>
        <edge-files value="data/simulationConfigurations/tests/0\0.edg.xml"/>
    </input>

    <output>
        <output-file value="data/simulationConfigurations/tests/0\0.net.xml"/>
    </output>

</configuration>
-->

<net version="1.16" junctionCornerDetail="5" limitTurnSpeed="5.50" xmlns:xsi="http://www.w3.org/2001/XMLSchema-instance" xsi:noNamespaceSchemaLocation="http://sumo.dlr.de/xsd/net_file.xsd">

    <location netOffset="-95.32,-116.77" convBoundary="0.00,0.00,863.70,949.67" origBoundary="95.32,116.77,959.01,1066.44" projParameter="!"/>

    <edge id=":V0001_0" function="internal">
        <lane id=":V0001_0_0" index="0" speed="13.02" length="68.20" shape="845.33,760.74 846.26,758.21 839.41,748.87 824.77,732.70 802.34,709.72"/>
    </edge>
    <edge id=":V0001_1" function="internal">
        <lane id=":V0001_1_0" index="0" speed="13.24" length="66.95" shape="845.33,760.74 843.57,757.54 836.28,747.56 823.45,730.81 805.09,707.29"/>
        <lane id=":V0001_1_1" index="1" speed="13.32" length="67.75" shape="845.33,760.74 845.51,757.74 839.28,747.50 826.65,730.03 807.60,705.31"/>
        <lane id=":V0001_1_2" index="2" speed="13.51" length="69.82" shape="845.33,760.74 847.45,757.94 842.29,747.44 829.85,729.24 810.12,703.34"/>
    </edge>
    <edge id=":V0001_4" function="internal">
        <lane id=":V0001_4_0" index="0" speed="5.43" length="11.63" shape="843.36,763.64 847.73,764.21 849.54,763.88 848.79,762.65 845.49,760.51"/>
    </edge>
    <edge id=":V0001_5" function="internal">
        <lane id=":V0001_5_0" index="0" speed="7.19" length="20.78" shape="843.36,763.64 850.12,765.39 856.01,767.92 858.74,770.62 855.99,772.85"/>
    </edge>
    <edge id=":V0002_0" function="internal">
        <lane id=":V0002_0_0" index="0" speed="5.95" length="13.74" shape="279.16,27.27 276.33,24.27 274.76,24.05 274.44,26.62 275.37,31.98"/>
    </edge>
    <edge id=":V0002_1" function="internal">
        <lane id=":V0002_1_0" index="0" speed="12.50" length="54.85" shape="279.16,27.27 269.69,19.44 260.27,20.12 250.89,29.31 241.55,46.99"/>
    </edge>
    <edge id=":V0002_2" function="internal">
        <lane id=":V0002_2_0" index="0" speed="10.00" length="55.64" shape="279.16,27.27 269.96,20.03 259.61,20.26 248.12,27.96 235.47,43.13"/>
        <lane id=":V0002_2_1" index="1" speed="10.00" length="58.48" shape="279.16,27.27 269.02,18.92 257.94,18.47 245.89,25.91 232.89,41.25"/>
    </edge>
    <edge id=":V0002_4" function="internal">
        <lane id=":V0002_4_0" index="0" speed="14.22" length="68.22" shape="219.21,31.27 235.10,18.41 250.82,13.13 263.99,17.25 272.22,32.57"/>
        <lane id=":V0002_4_1" index="1" speed="13.44" length="60.78" shape="221.82,33.17 235.98,21.52 250.00,16.42 261.74,19.70 269.08,33.17"/>
    </edge>
    <edge id=":V0002_6" function="internal">
        <lane id=":V0002_6_0" index="0" speed="8.20" length="28.82" shape="224.43,35.07 231.10,31.88 237.68,33.87 241.91,39.44 241.55,46.99"/>
    </edge>
    <edge id=":V0002_7" function="internal">
        <lane id=":V0002_7_0" index="0" speed="5.93" length="15.30" shape="224.43,35.07 228.86,33.44 231.74,33.93 233.09,36.53 232.89,41.25"/>
    </edge>
    <edge id=":V0002_8" function="internal">
        <lane id=":V0002_8_0" index="0" speed="7.14" length="21.19" shape="250.75,36.65 250.30,32.75 248.62,33.18 245.70,37.92 241.55,46.99"/>
    </edge>
    <edge id=":V0002_9" function="internal">
        <lane id=":V0002_9_0" index="0" speed="7.34" length="20.69" shape="250.75,36.65 250.07,33.35 247.72,33.65 243.72,37.53 238.06,45.02"/>
        <lane id=":V0002_9_1" index="1" speed="8.98" length="31.82" shape="253.97,36.04 253.02,28.92 249.63,27.73 243.78,32.47 235.47,43.13"/>
        <lane id=":V0002_9_2" index="2" speed="10.40" length="43.36" shape="257.19,35.43 255.98,24.49 251.53,21.81 243.83,27.40 232.89,41.25"/>
    </edge>
    <edge id=":V0002_12" function="internal">
        <lane id=":V0002_12_0" index="0" speed="6.44" length="17.67" shape="257.19,35.43 259.32,30.40 262.01,28.35 265.26,29.28 269.08,33.17"/>
    </edge>
    <edge id=":V0003_0" function="internal">
        <lane id=":V0003_0_0" index="0" speed="5.85" length="9.12" shape="652.89,559.90 650.77,558.30 648.89,557.99 647.26,558.96 645.87,561.23"/>
        <lane id=":V0003_0_1" index="1" speed="6.74" length="12.57" shape="652.89,559.90 649.68,557.31 646.95,556.45 644.70,557.33 642.94,559.95"/>
        <lane id=":V0003_0_2" index="2" speed="7.54" length="16.09" shape="652.89,559.90 648.58,556.31 645.00,554.91 642.14,555.70 640.00,558.68"/>
    </edge>
    <edge id=":V0003_3" function="internal">
        <lane id=":V0003_3_0" index="0" speed="18.50" length="21.56" shape="652.89,559.90 649.37,556.63 644.71,552.78 639.80,549.33 635.56,547.27"/>
    </edge>
    <edge id=":V0003_4" function="internal">
        <lane id=":V0003_4_0" index="0" speed="14.45" length="20.78" shape="652.89,559.90 647.87,554.52 644.32,549.89 642.23,546.01 641.59,542.89"/>
    </edge>
    <edge id=":V0004_0" function="internal">
        <lane id=":V0004_0_0" index="0" speed="12.50" length="96.63" shape="653.91,30.64 653.59,66.44 656.12,78.69 661.49,67.40 669.71,32.55"/>
        <lane id=":V0004_0_1" index="1" speed="11.01" length="57.65" shape="657.09,31.02 656.90,52.38 658.41,59.69 661.62,52.95 666.52,32.16"/>
        <lane id=":V0004_0_2" index="2" speed="6.50" length="18.67" shape="660.28,31.41 660.22,38.33 660.71,40.69 661.75,38.51 663.34,31.78"/>
    </edge>
    <edge id=":V0005_0" function="internal">
        <lane id=":V0005_0_0" index="0" speed="9.29" length="22.78" shape="8.97,602.81 9.35,605.32 12.68,607.67 18.99,609.87 28.25,611.91"/>
        <lane id=":V0005_0_1" index="1" speed="9.71" length="25.01" shape="8.97,602.81 8.83,606.65 11.90,609.97 18.18,612.77 27.67,615.05"/>
    </edge>
    <edge id=":V0005_2" function="internal">
        <lane id=":V0005_2_0" index="0" speed="11.17" length="24.41" shape="8.97,602.81 9.37,605.37 12.33,609.01 17.82,613.71 25.87,619.48"/>
        <lane id=":V0005_2_1" index="1" speed="11.96" length="28.12" shape="5.73,602.23 5.95,605.66 9.08,610.11 15.12,615.61 24.07,622.13"/>
        <lane id=":V0005_2_2" index="2" speed="12.28" length="29.72" shape="5.73,602.23 5.36,606.95 8.00,612.28 13.64,618.22 22.28,624.78"/>
    </edge>
    <edge id=":V0005_5" function="internal">
        <lane id=":V0005_5_0" index="0" speed="4.68" length="8.41" shape="5.73,602.23 3.94,604.10 2.39,604.56 1.10,603.60 0.06,601.22"/>
    </edge>
    <edge id=":V0006_0" function="internal">
        <lane id=":V0006_0_0" index="0" speed="7.01" length="20.87" shape="16.18,399.45 14.77,393.17 15.94,389.35 19.70,388.00 26.04,389.11"/>
    </edge>
    <edge id=":V0006_1" function="internal">
        <lane id=":V0006_1_0" index="0" speed="4.64" length="7.09" shape="32.55,381.79 30.36,381.40 29.39,381.84 29.63,383.09 31.08,385.16"/>
        <lane id=":V0006_1_1" index="1" speed="7.08" length="18.98" shape="33.43,378.71 27.30,377.58 24.45,378.60 24.87,381.79 28.56,387.14"/>
        <lane id=":V0006_1_2" index="2" speed="8.88" length="30.87" shape="34.30,375.64 24.23,373.75 19.50,375.37 20.10,380.49 26.04,389.11"/>
    </edge>
    <edge id=":V0006_4" function="internal">
        <lane id=":V0006_4_0" index="0" speed="12.04" length="26.62" shape="15.04,364.00 15.78,365.70 18.71,369.79 23.80,376.28 31.08,385.16"/>
        <lane id=":V0006_4_1" index="1" speed="12.50" length="30.14" shape="12.42,362.17 12.64,364.85 15.41,369.91 20.72,377.34 28.56,387.14"/>
        <lane id=":V0006_4_2" index="2" speed="12.50" length="33.90" shape="9.80,360.33 9.50,364.00 12.11,370.02 17.63,378.39 26.04,389.11"/>
    </edge>
    <edge id=":V0007_0" function="internal">
        <lane id=":V0007_0_0" index="0" speed="8.00" length="31.43" shape="242.97,953.17 240.13,952.07 236.52,947.35 232.16,939.01 227.03,927.04"/>
    </edge>
    <edge id=":V0007_1" function="internal">
        <lane id=":V0007_1_0" index="0" speed="10.82" length="27.93" shape="242.09,950.10 239.32,949.18 236.50,944.84 233.61,937.08 230.66,925.90"/>
    </edge>
    <edge id=":V0008_0" function="internal">
        <lane id=":V0008_0_0" index="0" speed="17.90" length="41.54" shape="63.62,232.25 61.30,218.81 61.11,207.66 63.03,198.81 67.08,192.26"/>
        <lane id=":V0008_0_1" index="1" speed="17.23" length="38.42" shape="66.74,231.53 64.52,218.89 64.22,208.51 65.85,200.36 69.40,194.46"/>
        <lane id=":V0008_0_2" index="2" speed="16.52" length="35.30" shape="69.85,230.81 67.73,218.98 67.33,209.35 68.67,201.91 71.73,196.66"/>
    </edge>
    <edge id=":V0008_3" function="internal">
        <lane id=":V0008_3_0" index="0" speed="22.50" length="39.92" shape="59.65,232.38 59.70,225.56 59.80,214.56 61.68,202.43 67.08,192.26"/>
        <lane id=":V0008_3_1" index="1" speed="22.50" length="39.92" shape="59.65,232.38 60.06,225.91 60.96,215.66 63.65,204.29 69.40,194.46"/>
        <lane id=":V0008_3_2" index="2" speed="22.50" length="39.92" shape="59.65,232.38 60.43,226.25 62.13,216.76 65.61,206.14 71.73,196.66"/>
    </edge>
    <edge id=":V0009_0" function="internal">
        <lane id=":V0009_0_0" index="0" speed="18.50" length="20.00" shape="251.91,433.45 249.18,430.50 245.18,427.74 241.60,424.03 240.16,418.25"/>
    </edge>
    <edge id=":V0009_1" function="internal">
        <lane id=":V0009_1_0" index="0" speed="11.07" length="17.66" shape="255.32,430.48 250.03,427.16 246.27,424.02 244.05,421.08 243.36,418.34"/>
        <lane id=":V0009_1_1" index="1" speed="9.99" length="14.27" shape="256.90,427.70 252.34,424.91 249.09,422.43 247.17,420.27 246.55,418.43"/>
    </edge>
    <edge id=":V0010_0" function="internal">
        <lane id=":V0010_0_0" index="0" speed="11.16" length="44.80" shape="487.53,917.07 480.85,924.07 473.00,921.09 465.12,911.55 458.37,898.89"/>
    </edge>
    <edge id=":V0010_1" function="internal">
        <lane id=":V0010_1_0" index="0" speed="9.62" length="36.17" shape="480.79,914.54 476.85,920.32 470.73,917.50 464.04,909.28 458.37,898.89"/>
    </edge>
    <edge id=":V0010_2" function="internal">
        <lane id=":V0010_2_0" index="0" speed="6.01" length="15.53" shape="468.00,894.38 467.28,899.12 465.44,901.45 462.47,901.37 458.37,898.89"/>
    </edge>
    <edge id=":V0010_3" function="internal">
        <lane id=":V0010_3_0" index="0" speed="6.08" length="15.43" shape="454.89,901.00 458.67,905.16 460.50,906.20 460.41,904.10 458.37,898.89"/>
    </edge>
    <edge id=":V0010_4" function="internal">
        <lane id=":V0010_4_0" index="0" speed="7.97" length="24.93" shape="456.49,914.61 461.35,916.83 463.28,914.95 462.29,908.97 458.37,898.89"/>
    </edge>
    <edge id=":V0011_0" function="internal">
        <lane id=":V0011_0_0" index="0" speed="19.00" length="29.42" shape="646.75,505.68 641.36,498.02 637.90,491.82 634.98,486.33 631.22,480.74"/>
        <lane id=":V0011_0_1" index="1" speed="19.00" length="29.42" shape="649.26,503.71 643.88,496.04 640.42,489.85 637.50,484.35 633.74,478.76"/>
    </edge>
    <edge id=":V0011_2" function="internal">
        <lane id=":V0011_2_0" index="0" speed="16.00" length="27.50" shape="651.78,501.73 646.54,495.43 643.03,490.74 641.14,485.51 640.78,477.63"/>
        <lane id=":V0011_2_1" index="1" speed="16.00" length="26.14" shape="651.78,501.73 647.21,495.57 644.78,490.74 643.90,485.41 643.97,477.74"/>
    </edge>
    <edge id=":V0011_4" function="internal">
        <lane id=":V0011_4_0" index="0" speed="16.50" length="28.98" shape="642.91,506.93 642.03,501.84 639.45,494.91 635.68,487.44 631.22,480.74"/>
    </edge>
    <edge id=":V0011_5" function="internal">
        <lane id=":V0011_5_0" index="0" speed="13.50" length="29.55" shape="642.91,506.93 642.08,502.33 640.11,495.95 638.21,487.71 637.58,477.51"/>
        <lane id=":V0011_5_1" index="1" speed="13.50" length="29.55" shape="642.91,506.93 642.58,502.31 641.71,495.91 640.91,487.70 640.78,477.63"/>
        <lane id=":V0011_5_2" index="2" speed="13.50" length="29.55" shape="642.91,506.93 643.97,477.74"/>
    </edge>
    <edge id=":V0012_0" function="internal">
        <lane id=":V0012_0_0" index="0" speed="6.27" length="7.53" shape="102.25,401.69 100.42,401.49 98.83,401.99 97.49,403.20 96.40,405.13"/>
        <lane id=":V0012_0_1" index="1" speed="7.82" length="12.24" shape="103.13,398.61 100.04,398.23 97.39,398.98 95.20,400.86 93.46,403.88"/>
    </edge>
    <edge id=":V0012_2" function="internal">
        <lane id=":V0012_2_0" index="0" speed="15.50" length="15.69" shape="104.01,395.54 99.41,394.74 96.13,394.95 92.85,395.16 88.26,394.37"/>
        <lane id=":V0012_2_1" index="1" speed="15.50" length="15.69" shape="104.01,395.54 89.13,391.29"/>
    </edge>
    <edge id=":V0012_4" function="internal">
        <lane id=":V0012_4_0" index="0" speed="14.00" length="16.57" shape="96.74,387.95 96.34,391.46 97.10,395.30 97.60,399.75 96.40,405.13"/>
        <lane id=":V0012_4_1" index="1" speed="14.00" length="16.57" shape="96.74,387.95 95.85,391.32 95.56,394.83 95.04,398.88 93.46,403.88"/>
        <lane id=":V0012_4_2" index="2" speed="14.00" length="16.57" shape="96.74,387.95 90.51,402.62"/>
    </edge>
    <edge id=":V0012_7" function="internal">
        <lane id=":V0012_7_0" index="0" speed="6.88" length="9.24" shape="96.74,387.95 95.49,390.00 93.80,391.24 91.68,391.67 89.13,391.29"/>
    </edge>
    <edge id=":V0013_0" function="internal">
        <lane id=":V0013_0_0" index="0" speed="13.65" length="20.43" shape="511.44,872.34 508.81,873.91 506.01,877.16 503.03,882.09 499.88,888.69"/>
    </edge>
    <edge id=":V0013_1" function="internal">
        <lane id=":V0013_1_0" index="0" speed="21.00" length="18.27" shape="511.44,872.34 508.30,874.28 505.41,877.41 501.73,880.76 496.21,883.40"/>
        <lane id=":V0013_1_1" index="1" speed="21.00" length="18.27" shape="511.44,872.34 508.11,873.82 504.82,875.91 500.81,878.22 495.32,880.32"/>
        <lane id=":V0013_1_2" index="2" speed="21.00" length="18.27" shape="511.44,872.34 494.43,877.25"/>
    </edge>
    <edge id=":V0013_4" function="internal">
        <lane id=":V0013_4_0" index="0" speed="17.50" length="21.52" shape="508.47,868.96 499.88,888.69"/>
        <lane id=":V0013_4_1" index="1" speed="17.50" length="21.52" shape="505.54,867.68 496.95,887.42"/>
    </edge>
    <edge id=":V0013_6" function="internal">
        <lane id=":V0013_6_0" index="0" speed="12.37" length="16.68" shape="505.54,867.68 503.09,872.63 500.57,876.38 497.98,878.95 495.32,880.32"/>
        <lane id=":V0013_6_1" index="1" speed="11.81" length="15.15" shape="505.54,867.68 503.66,871.01 501.18,873.71 498.10,875.79 494.43,877.25"/>
    </edge>
    <edge id=":V0014_0" function="internal">
        <lane id=":V0014_0_0" index="0" speed="23.00" length="18.46" shape="162.85,646.97 158.69,628.99"/>
        <lane id=":V0014_0_1" index="1" speed="23.00" length="18.46" shape="165.96,646.25 161.80,628.27"/>
    </edge>
    <edge id=":V0014_2" function="internal">
        <lane id=":V0014_2_0" index="0" speed="6.71" length="12.66" shape="165.96,646.25 165.47,642.11 166.21,639.35 168.19,637.98 171.42,637.99"/>
        <lane id=":V0014_2_1" index="1" speed="5.80" length="9.14" shape="165.96,646.25 165.72,643.58 166.46,641.84 168.16,641.02 170.84,641.13"/>
    </edge>
    <edge id=":V0014_4" function="internal">
        <lane id=":V0014_4_0" index="0" speed="5.95" length="9.67" shape="153.97,634.81 156.64,634.88 158.31,633.93 159.00,631.97 158.69,628.99"/>
        <lane id=":V0014_4_1" index="1" speed="7.58" length="16.58" shape="153.40,637.96 158.09,638.11 161.06,636.55 162.29,633.27 161.80,628.27"/>
    </edge>
    <edge id=":V0014_6" function="internal">
        <lane id=":V0014_6_0" index="0" speed="12.50" length="18.35" shape="153.40,637.96 158.91,637.94 162.69,636.40 166.48,634.85 171.99,634.84"/>
        <lane id=":V0014_6_1" index="1" speed="12.50" length="18.35" shape="153.40,637.96 158.70,638.42 162.41,637.97 166.11,637.53 171.42,637.99"/>
        <lane id=":V0014_6_2" index="2" speed="12.50" length="18.35" shape="153.40,637.96 170.84,641.13"/>
    </edge>
    <edge id=":V0015_0" function="internal">
        <lane id=":V0015_0_0" index="0" speed="5.49" length="9.61" shape="388.10,509.24 385.30,508.06 383.55,508.28 382.84,509.90 383.17,512.92"/>
        <lane id=":V0015_0_1" index="1" speed="7.40" length="18.77" shape="389.68,506.45 384.21,504.15 380.78,504.58 379.40,507.74 380.06,513.64"/>
    </edge>
    <edge id=":V0015_2" function="internal">
        <lane id=":V0015_2_0" index="0" speed="13.50" length="25.91" shape="391.25,503.67 384.08,500.76 378.59,500.18 373.10,499.61 365.93,496.70"/>
        <lane id=":V0015_2_1" index="1" speed="13.50" length="25.91" shape="391.25,503.67 384.40,500.37 379.38,498.79 374.36,497.22 367.50,493.91"/>
        <lane id=":V0015_2_2" index="2" speed="13.50" length="25.91" shape="391.25,503.67 369.08,491.13"/>
    </edge>
    <edge id=":V0015_5" function="internal">
        <lane id=":V0015_5_0" index="0" speed="18.50" length="26.99" shape="374.01,487.45 375.60,492.11 378.17,498.36 380.95,505.51 383.17,512.92"/>
        <lane id=":V0015_5_1" index="1" speed="18.50" length="26.99" shape="374.01,487.45 380.06,513.64"/>
    </edge>
    <edge id=":V0015_7" function="internal">
        <lane id=":V0015_7_0" index="0" speed="6.52" length="14.22" shape="374.01,487.45 374.61,492.23 373.73,494.90 371.36,495.46 367.50,493.91"/>
        <lane id=":V0015_7_1" index="1" speed="5.49" length="9.61" shape="374.01,487.45 374.34,490.47 373.63,492.09 371.88,492.31 369.08,491.13"/>
    </edge>
    <edge id=":V0016_0" function="internal">
        <lane id=":V0016_0_0" index="0" speed="4.53" length="5.95" shape="31.21,385.32 32.62,386.69 33.73,387.04 34.54,386.38 35.05,384.69"/>
    </edge>
    <edge id=":V0016_1" function="internal">
        <lane id=":V0016_1_0" index="0" speed="18.50" length="18.40" shape="28.69,387.29 32.53,391.14 35.70,393.24 38.87,395.33 42.71,399.18"/>
        <lane id=":V0016_1_1" index="1" speed="18.50" length="18.40" shape="26.17,389.27 30.03,393.13 33.21,395.24 36.39,397.36 40.25,401.22"/>
        <lane id=":V0016_1_2" index="2" speed="18.50" length="18.40" shape="26.17,389.27 37.78,403.26"/>
    </edge>
    <edge id=":V0016_4" function="internal">
        <lane id=":V0016_4_0" index="0" speed="20.00" length="20.48" shape="31.78,404.90 35.05,384.69"/>
    </edge>
    <edge id=":V0016_5" function="internal">
        <lane id=":V0016_5_0" index="0" speed="6.52" length="14.06" shape="31.78,404.90 33.01,400.31 34.84,398.17 37.25,398.47 40.25,401.22"/>
        <lane id=":V0016_5_1" index="1" speed="5.51" length="9.56" shape="31.78,404.90 32.61,402.01 33.88,400.78 35.61,401.20 37.78,403.26"/>
    </edge>
    <edge id=":V0017_0" function="internal">
        <lane id=":V0017_0_0" index="0" speed="12.27" length="16.31" shape="259.63,450.84 257.47,446.92 254.84,443.81 251.72,441.50 248.13,440.01"/>
    </edge>
    <edge id=":V0017_1" function="internal">
        <lane id=":V0017_1_0" index="0" speed="16.00" length="18.92" shape="259.63,450.84 251.95,433.54"/>
    </edge>
    <edge id=":V0017_2" function="internal">
        <lane id=":V0017_2_0" index="0" speed="16.50" length="16.35" shape="262.57,447.45 258.12,445.66 255.35,443.73 252.59,441.80 248.13,440.01"/>
        <lane id=":V0017_2_1" index="1" speed="16.50" length="16.35" shape="263.45,444.38 259.00,442.59 256.23,440.65 253.46,438.72 249.01,436.93"/>
    </edge>
    <edge id=":V0017_4" function="internal">
        <lane id=":V0017_4_0" index="0" speed="11.78" length="15.00" shape="264.33,441.30 259.72,439.72 256.12,437.90 253.53,435.84 251.95,433.54"/>
    </edge>
    <edge id=":V0018_0" function="internal">
        <lane id=":V0018_0_0" index="0" speed="13.00" length="34.54" shape="140.75,711.15 127.93,679.08"/>
    </edge>
    <edge id=":V0018_1" function="internal">
        <lane id=":V0018_1_0" index="0" speed="6.67" length="4.56" shape="140.75,711.15 139.42,706.79"/>
        <lane id=":V0018_1_1" index="1" speed="5.48" length="4.18" shape="140.75,711.15 139.73,707.73 139.86,707.14"/>
    </edge>
    <edge id=":V0018_8" function="internal">
        <lane id=":V0018_8_0" index="0" speed="6.67" length="12.08" shape="139.42,706.79 139.05,705.58 139.49,702.72 142.05,702.56 146.76,705.11"/>
    </edge>
    <edge id=":V0018_9" function="internal">
        <lane id=":V0018_9_0" index="0" speed="5.48" length="6.44" shape="139.86,707.14 140.10,706.03 141.84,706.04 144.96,707.76"/>
    </edge>
    <edge id=":V0018_3" function="internal">
        <lane id=":V0018_3_0" index="0" speed="5.48" length="10.62" shape="120.75,683.66 123.87,685.38 125.62,685.39 125.98,683.68 124.96,680.26"/>
        <lane id=":V0018_3_1" index="1" speed="7.68" length="22.64" shape="118.96,686.31 125.62,689.98 129.33,690.00 130.10,686.36 127.93,679.08"/>
    </edge>
    <edge id=":V0018_5" function="internal">
        <lane id=":V0018_5_0" index="0" speed="17.00" length="33.88" shape="117.16,688.96 125.56,693.43 132.86,695.71 140.15,697.99 148.55,702.46"/>
        <lane id=":V0018_5_1" index="1" speed="17.00" length="33.88" shape="117.16,688.96 125.28,693.85 131.96,697.03 138.64,700.22 146.76,705.11"/>
        <lane id=":V0018_5_2" index="2" speed="17.00" length="33.88" shape="117.16,688.96 144.96,707.76"/>
    </edge>
    <edge id=":V0019_0" function="internal">
        <lane id=":V0019_0_0" index="0" speed="5.52" length="9.52" shape="590.34,428.67 588.23,426.57 586.51,426.10 585.18,427.28 584.23,430.11"/>
        <lane id=":V0019_0_1" index="1" speed="7.39" length="18.33" shape="592.85,426.70 588.80,422.64 585.49,421.75 582.92,424.02 581.10,429.46"/>
    </edge>
    <edge id=":V0019_2" function="internal">
        <lane id=":V0019_2_0" index="0" speed="12.50" length="21.78" shape="592.85,426.70 579.40,409.57"/>
    </edge>
    <edge id=":V0019_3" function="internal">
        <lane id=":V0019_3_0" index="0" speed="13.00" length="22.08" shape="591.78,409.43 589.94,415.83 587.93,420.14 585.95,424.26 584.23,430.11"/>
        <lane id=":V0019_3_1" index="1" speed="13.00" length="22.08" shape="588.64,408.78 586.81,415.18 584.79,419.49 582.82,423.61 581.10,429.46"/>
    </edge>
    <edge id=":V0019_5" function="internal">
        <lane id=":V0019_5_0" index="0" speed="5.52" length="9.52" shape="585.51,408.13 584.56,410.96 583.23,412.14 581.51,411.67 579.40,409.57"/>
    </edge>
    <edge id=":V0020_0" function="internal">
        <lane id=":V0020_0_0" index="0" speed="5.50" length="9.59" shape="78.62,282.91 77.60,280.06 76.25,278.92 74.57,279.47 72.56,281.74"/>
        <lane id=":V0020_0_1" index="1" speed="7.40" length="18.68" shape="81.74,282.19 79.75,276.64 77.12,274.42 73.85,275.50 69.94,279.90"/>
    </edge>
    <edge id=":V0020_2" function="internal">
        <lane id=":V0020_2_0" index="0" speed="20.00" length="27.08" shape="81.74,282.19 79.31,276.12 75.93,271.27 72.39,265.74 69.49,257.63"/>
        <lane id=":V0020_2_1" index="1" speed="20.00" length="27.08" shape="81.74,282.19 79.79,275.97 77.46,270.81 75.00,265.01 72.61,256.91"/>
        <lane id=":V0020_2_2" index="2" speed="20.00" length="27.08" shape="81.74,282.19 75.72,256.19"/>
    </edge>
    <edge id=":V0020_5" function="internal">
        <lane id=":V0020_5_0" index="0" speed="16.00" length="25.26" shape="87.03,261.03 72.56,281.74"/>
        <lane id=":V0020_5_1" index="1" speed="16.00" length="25.26" shape="84.41,259.20 69.94,279.90"/>
        <lane id=":V0020_5_2" index="2" speed="16.00" length="25.26" shape="81.79,257.36 67.31,278.07"/>
    </edge>
    <edge id=":V0020_8" function="internal">
        <lane id=":V0020_8_0" index="0" speed="6.52" length="14.16" shape="81.79,257.36 78.66,260.99 76.08,262.13 74.07,260.77 72.61,256.91"/>
        <lane id=":V0020_8_1" index="1" speed="5.50" length="9.59" shape="81.79,257.36 79.78,259.63 78.10,260.18 76.75,259.04 75.72,256.19"/>
    </edge>
    <edge id=":V0021_0" function="internal">
        <lane id=":V0021_0_0" index="0" speed="5.60" length="11.04" shape="104.88,382.21 103.76,378.99 102.40,377.99 100.81,379.22 98.98,382.69"/>
    </edge>
    <edge id=":V0021_1" function="internal">
        <lane id=":V0021_1_0" index="0" speed="24.00" length="18.01" shape="104.88,382.21 103.58,378.80 101.65,375.37 99.56,371.20 97.74,365.56"/>
        <lane id=":V0021_1_1" index="1" speed="24.00" length="18.01" shape="104.88,382.21 100.86,364.84"/>
    </edge>
    <edge id=":V0021_3" function="internal">
        <lane id=":V0021_3_0" index="0" speed="12.50" length="18.88" shape="106.36,365.32 98.98,382.69"/>
    </edge>
    <edge id=":V0021_4" function="internal">
        <lane id=":V0021_4_0" index="0" speed="5.46" length="4.16" shape="106.36,365.32 104.71,368.36 104.12,368.74"/>
    </edge>
    <edge id=":V0021_5" function="internal">
        <lane id=":V0021_5_0" index="0" speed="5.46" length="6.25" shape="104.12,368.74 103.24,369.30 101.96,368.12 100.86,364.84"/>
    </edge>
    <edge id=":V0022_0" function="internal">
        <lane id=":V0022_0_0" index="0" speed="9.93" length="14.26" shape="83.16,436.30 81.25,441.28 80.20,445.21 80.00,448.10 80.66,449.94"/>
        <lane id=":V0022_0_1" index="1" speed="11.01" length="17.69" shape="80.22,435.04 78.05,440.91 76.99,445.68 77.04,449.37 78.20,451.98"/>
    </edge>
    <edge id=":V0022_2" function="internal">
        <lane id=":V0022_2_0" index="0" speed="14.50" length="17.33" shape="77.27,433.79 70.50,449.74"/>
    </edge>
    <edge id=":V0022_3" function="internal">
        <lane id=":V0022_3_0" index="0" speed="21.50" length="17.72" shape="72.06,434.56 74.99,438.87 76.36,442.25 77.74,445.63 80.66,449.94"/>
        <lane id=":V0022_3_1" index="1" speed="21.50" length="17.72" shape="69.60,436.60 72.52,440.91 73.90,444.29 75.27,447.67 78.20,451.98"/>
    </edge>
    <edge id=":V0022_5" function="internal">
        <lane id=":V0022_5_0" index="0" speed="9.21" length="6.68" shape="67.13,438.64 69.35,441.75 70.52,444.36"/>
    </edge>
    <edge id=":V0022_6" function="internal">
        <lane id=":V0022_6_0" index="0" speed="9.21" length="5.49" shape="70.52,444.36 70.65,444.64 71.03,447.30 70.50,449.74"/>
    </edge>
    <edge id=":V0023_0" function="internal">
        <lane id=":V0023_0_0" index="0" speed="14.00" length="8.28" shape="41.05,380.89 38.62,380.72 36.89,381.37 35.17,382.02 32.74,381.85"/>
        <lane id=":V0023_0_1" index="1" speed="14.00" length="8.28" shape="41.93,377.81 39.50,377.64 37.77,378.29 36.05,378.94 33.62,378.77"/>
        <lane id=":V0023_0_2" index="2" speed="14.00" length="8.28" shape="41.93,377.81 34.50,375.69"/>
    </edge>
    <edge id=":V0023_3" function="internal">
        <lane id=":V0023_3_0" index="0" speed="6.86" length="9.23" shape="41.93,377.81 39.57,376.79 38.00,375.31 37.24,373.36 37.27,370.95"/>
    </edge>
    <edge id=":V0023_4" function="internal">
        <lane id=":V0023_4_0" index="0" speed="4.73" length="3.90" shape="35.08,384.49 35.05,383.62 34.65,382.88 33.88,382.30 32.74,381.85"/>
    </edge>
    <edge id=":V0023_5" function="internal">
        <lane id=":V0023_5_0" index="0" speed="17.50" length="13.71" shape="35.08,384.49 37.27,370.95"/>
    </edge>
    <edge id=":V0024_0" function="internal">
        <lane id=":V0024_0_0" index="0" speed="7.47" length="11.72" shape="478.25,885.25 474.60,886.64 472.17,888.38 470.94,890.46 470.93,892.87"/>
    </edge>
    <edge id=":V0024_1" function="internal">
        <lane id=":V0024_1_0" index="0" speed="12.00" length="17.37" shape="477.36,882.17 460.68,886.99"/>
    </edge>
    <edge id=":V0024_2" function="internal">
        <lane id=":V0024_2_0" index="0" speed="11.00" length="14.63" shape="470.87,878.35 471.34,882.61 470.90,885.61 470.46,888.61 470.93,892.87"/>
        <lane id=":V0024_2_1" index="1" speed="11.00" length="14.63" shape="467.75,879.07 468.22,883.33 467.78,886.33 467.35,889.33 467.82,893.59"/>
    </edge>
    <edge id=":V0024_4" function="internal">
        <lane id=":V0024_4_0" index="0" speed="6.70" length="9.25" shape="464.63,879.79 464.87,882.37 464.30,884.43 462.90,885.97 460.68,886.99"/>
    </edge>
    <edge id=":V0025_0" function="internal">
        <lane id=":V0025_0_0" index="0" speed="6.46" length="10.46" shape="579.96,704.68 578.97,707.88 579.10,710.32 580.37,711.99 582.77,712.91"/>
    </edge>
    <edge id=":V0025_1" function="internal">
        <lane id=":V0025_1_0" index="0" speed="19.00" length="17.86" shape="579.96,704.68 572.83,721.06"/>
        <lane id=":V0025_1_1" index="1" speed="19.00" length="17.86" shape="577.02,703.40 569.90,719.78"/>
    </edge>
    <edge id=":V0025_3" function="internal">
        <lane id=":V0025_3_0" index="0" speed="15.00" length="17.68" shape="567.53,706.88 572.21,708.75 574.86,711.47 577.51,714.19 582.19,716.06"/>
    </edge>
    <edge id=":V0025_4" function="internal">
        <lane id=":V0025_4_0" index="0" speed="7.65" length="15.15" shape="566.95,710.03 571.03,711.40 573.37,713.69 573.97,716.91 572.83,721.06"/>
        <lane id=":V0025_4_1" index="1" speed="6.07" length="9.07" shape="566.38,713.18 568.82,714.00 570.22,715.37 570.58,717.30 569.90,719.78"/>
    </edge>
    <edge id=":V0026_0" function="internal">
        <lane id=":V0026_0_0" index="0" speed="19.00" length="28.99" shape="188.55,743.88 182.01,715.63"/>
    </edge>
    <edge id=":V0026_1" function="internal">
        <lane id=":V0026_1_0" index="0" speed="6.54" length="4.41" shape="188.55,743.88 187.97,739.51"/>
        <lane id=":V0026_1_1" index="1" speed="5.46" length="4.16" shape="188.55,743.88 188.17,740.72 188.55,739.82"/>
    </edge>
    <edge id=":V0026_7" function="internal">