<nodes><node id="V0001" x="959.0133333333334" y="885.7333333333333" type="priority" /><node id="V0002" x="355.08866666666665" y="116.768" type="priority" /><node id="V0003" x="738.3333333333334" y="664.506" type="priority" /><node id="V0004" x="757.2199999999999" y="147.56333333333333" type="priority" /><node id="V0005" x="95.31533333333333" y="728.4066666666666" type="priority" /><node id="V0006" x="99.61266666666667" y="482.17600000000004" type="priority" /><node id="V0007" x="333.1153333333333" y="1066.44" type="priority" /><node id="V0008" x="160.94266666666667" y="322.21066666666667" type="priority" /><node id="V0009" x="343.4026666666667" y="537.6466666666666" type="priority" /><node id="V0010" x="570.6226666666666" y="1049.9" type="priority" /><node id="V0011" x="740.42" y="607.4066666666666" type="priority" /><node id="V0012" x="189.05066666666667" y="507.70733333333334" type="priority" /><node id="V0013" x="596.52" y="990.3933333333333" type="priority" /><node id="V0014" x="261.93533333333335" y="758.76" type="priority" /><node id="V0015" x="468.66266666666667" y="608.4733333333334" type="priority" /><node id="V0016" x="129.31333333333333" y="517.976" type="priority" /><node id="V0017" x="350.57466666666664" y="553.816" type="priority" /><node id="V0018" x="236.06866666666667" y="823.6133333333333" type="priority" /><node id="V0019" x="678.4466666666667" y="528.4926666666667" type="priority" /><node id="V0020" x="173.5006666666667" y="376.49399999999997" type="priority" /><node id="V0021" x="198.63533333333334" y="485.14000000000004" type="priority" /><node id="V0022" x="165.93933333333334" y="562.1226666666666" type="priority" /><node id="V0023" x="133.53333333333333" y="491.8593333333334" type="priority" /><node id="V0024" x="559.3553333333333" y="1001.12" type="priority" /><node id="V0025" x="665.342" y="832.24" type="priority" /><node id="V0026" x="284.52066666666667" y="856.3866666666667" type="priority" /><node id="V0027" x="206.084" y="748.5866666666666" type="priority" /><node id="V0028" x="641.6759999999999" y="706.3" type="priority" /><node id="V0029" x="393.84066666666666" y="566.1666666666666" type="priority" /><node id="V0030" x="463.48199999999997" y="586.046" type="priority" /><node id="V0031" x="124.882" y="545.4053333333334" type="priority" /><node id="V0032" x="550.1626666666667" y="1003.7733333333333" type="priority" /><node id="V0033" x="204.90266666666668" y="512.2326666666667" type="priority" /><node id="V0034" x="145.762" y="416.168" type="priority" /><node id="V0035" x="148.22866666666667" y="603.8226666666667" type="priority" /><node id="V0036" x="341.03066666666666" y="773.1666666666666" type="priority" /><node id="V0037" x="582.066" y="994.5666666666667" type="priority" /><node id="V0038" x="513.98" y="804.6733333333334" type="priority" /><node id="V0039" x="704.6533333333333" y="741.9133333333334" type="priority" /><node id="V0040" x="516.708" y="1013.4333333333333" type="priority" /><node id="V0041" x="655.2246666666667" y="640.7806666666667" type="priority" /><node id="V0042" x="457.2633333333333" y="794.34" type="priority" /><node id="V0043" x="235.97400000000002" y="646.5373333333333" type="priority" /><node id="V0044" x="535.7953333333334" y="1007.9266666666666" type="priority" /><node id="V0045" x="617.4373333333333" y="823.5133333333334" type="priority" /></nodes>