<configuration><input><net-file value="0.net.xml" /><route-files value="0.rou.xml" /></input><time><begin value="0" /></time></configuration>