<?xml version="1.0" encoding="UTF-8"?>

<!-- generated on 2023-06-26 02:23:40 by Eclipse SUMO netconvert Version 1.16.0
<configuration xmlns:xsi="http://www.w3.org/2001/XMLSchema-instance" xsi:noNamespaceSchemaLocation="http://sumo.dlr.de/xsd/netconvertConfiguration.xsd">

    <input>
        <node-files value="data/simulationConfigurations/optimized\optimized.nod.xml"/>
        <edge-files value="data/simulationConfigurations/optimized\optimized.edg.xml"/>
    </input>

    <output>
        <output-file value="data/simulationConfigurations/optimized\optimized.net.xml"/>
    </output>

</configuration>
-->

<net version="1.16" junctionCornerDetail="5" limitTurnSpeed="5.50" xmlns:xsi="http://www.w3.org/2001/XMLSchema-instance" xsi:noNamespaceSchemaLocation="http://sumo.dlr.de/xsd/net_file.xsd">

    <location netOffset="-95.32,-147.56" convBoundary="0.00,0.00,863.70,918.88" origBoundary="95.32,40.00,959.01,1066.44" projParameter="!"/>

    <edge id=":V0001_0" function="internal">
        <lane id=":V0001_0_0" index="0" speed="13.02" length="68.20" shape="845.33,729.94 846.26,727.42 839.41,718.07 824.77,701.91 802.34,678.93"/>
    </edge>
    <edge id=":V0001_1" function="internal">
        <lane id=":V0001_1_0" index="0" speed="13.24" length="66.95" shape="845.33,729.94 843.57,726.74 836.28,716.77 823.45,700.02 805.09,676.50"/>
        <lane id=":V0001_1_1" index="1" speed="13.32" length="67.75" shape="845.33,729.94 845.51,726.94 839.28,716.71 826.65,699.23 807.60,674.52"/>
        <lane id=":V0001_1_2" index="2" speed="13.51" length="69.82" shape="845.33,729.94 847.45,727.14 842.29,716.64 829.85,698.44 810.12,672.54"/>
    </edge>
    <edge id=":V0001_4" function="internal">
        <lane id=":V0001_4_0" index="0" speed="5.43" length="11.63" shape="843.36,732.84 847.73,733.42 849.54,733.09 848.79,731.85 845.49,729.71"/>
    </edge>
    <edge id=":V0001_5" function="internal">
        <lane id=":V0001_5_0" index="0" speed="7.19" length="20.78" shape="843.36,732.84 850.12,734.60 856.01,737.13 858.74,739.82 855.99,742.06"/>
    </edge>
    <edge id=":V0003_0" function="internal">
        <lane id=":V0003_0_0" index="0" speed="5.85" length="9.12" shape="652.89,529.11 650.77,527.50 648.89,527.19 647.26,528.17 645.87,530.43"/>
        <lane id=":V0003_0_1" index="1" speed="6.74" length="12.57" shape="652.89,529.11 649.68,526.51 646.95,525.65 644.70,526.54 642.94,529.16"/>
        <lane id=":V0003_0_2" index="2" speed="7.54" length="16.09" shape="652.89,529.11 648.58,525.52 645.00,524.12 642.14,524.90 640.00,527.88"/>
    </edge>
    <edge id=":V0004_0" function="internal">
        <lane id=":V0004_0_0" index="0" speed="10.08" length="33.35" shape="645.51,-2.16 655.06,-4.29 662.76,-2.77 667.41,2.39 667.77,11.16"/>
        <lane id=":V0004_0_1" index="1" speed="8.99" length="26.22" shape="646.68,0.81 654.26,-0.98 660.48,-0.06 664.28,3.72 664.64,10.50"/>
        <lane id=":V0004_0_2" index="2" speed="7.98" length="20.34" shape="647.85,3.79 654.79,1.79 659.37,2.12 661.61,4.81 661.51,9.83"/>
    </edge>
    <edge id=":V0004_3" function="internal">
        <lane id=":V0004_3_0" index="0" speed="12.50" length="87.54" shape="653.60,8.16 653.30,40.91 655.56,52.33 660.38,42.41 667.77,11.16"/>
        <lane id=":V0004_3_1" index="1" speed="10.14" length="48.55" shape="656.78,8.83 656.61,27.00 657.86,33.33 660.54,27.83 664.64,10.50"/>
        <lane id=":V0004_3_2" index="2" speed="4.88" length="9.57" shape="659.96,9.50 659.92,13.09 660.17,14.33 660.70,13.25 661.51,9.83"/>
    </edge>
    <edge id=":V0005_0" function="internal">
        <lane id=":V0005_0_0" index="0" speed="9.29" length="22.78" shape="8.97,572.01 9.35,574.52 12.68,576.88 18.99,579.07 28.25,581.11"/>
        <lane id=":V0005_0_1" index="1" speed="9.71" length="25.01" shape="8.97,572.01 8.83,575.85 11.90,579.18 18.18,581.98 27.67,584.26"/>
    </edge>
    <edge id=":V0005_2" function="internal">
        <lane id=":V0005_2_0" index="0" speed="11.17" length="24.41" shape="8.97,572.01 9.37,574.58 12.33,578.21 17.82,582.91 25.87,588.68"/>
        <lane id=":V0005_2_1" index="1" speed="11.96" length="28.12" shape="5.73,571.44 5.95,574.86 9.08,579.32 15.12,584.81 24.07,591.33"/>
        <lane id=":V0005_2_2" index="2" speed="12.28" length="29.72" shape="5.73,571.44 5.36,576.15 8.00,581.48 13.64,587.43 22.28,593.98"/>
    </edge>
    <edge id=":V0005_5" function="internal">
        <lane id=":V0005_5_0" index="0" speed="4.68" length="8.41" shape="5.73,571.44 3.94,573.31 2.39,573.77 1.10,572.80 0.06,570.42"/>
    </edge>
    <edge id=":V0006_0" function="internal">
        <lane id=":V0006_0_0" index="0" speed="7.01" length="20.87" shape="16.18,368.66 14.77,362.37 15.94,358.56 19.70,357.21 26.04,358.32"/>
    </edge>
    <edge id=":V0006_1" function="internal">
        <lane id=":V0006_1_0" index="0" speed="4.64" length="7.09" shape="32.55,351.00 30.36,350.61 29.39,351.04 29.63,352.30 31.08,354.37"/>
        <lane id=":V0006_1_1" index="1" speed="7.08" length="18.98" shape="33.43,347.92 27.30,346.78 24.45,347.81 24.87,351.00 28.56,356.34"/>
        <lane id=":V0006_1_2" index="2" speed="8.88" length="30.87" shape="34.30,344.84 24.23,342.96 19.50,344.58 20.10,349.70 26.04,358.32"/>
    </edge>
    <edge id=":V0006_4" function="internal">
        <lane id=":V0006_4_0" index="0" speed="12.04" length="26.62" shape="15.04,333.21 15.78,334.90 18.71,338.99 23.80,345.48 31.08,354.37"/>
        <lane id=":V0006_4_1" index="1" speed="12.50" length="30.14" shape="12.42,331.37 12.64,334.05 15.41,339.11 20.72,346.54 28.56,356.34"/>
        <lane id=":V0006_4_2" index="2" speed="12.50" length="33.90" shape="9.80,329.54 9.50,333.21 12.11,339.23 17.63,347.60 26.04,358.32"/>
    </edge>
    <edge id=":V0007_0" function="internal">
        <lane id=":V0007_0_0" index="0" speed="8.00" length="37.50" shape="252.21,919.71 245.33,919.78 238.83,915.89 232.73,908.04 227.03,896.24"/>
    </edge>
    <edge id=":V0007_1" function="internal">
        <lane id=":V0007_1_0" index="0" speed="11.45" length="31.40" shape="251.32,916.64 245.61,915.29 239.28,909.83 233.81,902.39 230.66,895.10"/>
    </edge>
    <edge id=":V0007_2" function="internal">
        <lane id=":V0007_2_0" index="0" speed="11.85" length="33.68" shape="251.32,916.64 244.52,916.88 238.81,913.38 234.19,906.12 230.66,895.10"/>
    </edge>
    <edge id=":V0007_3" function="internal">
        <lane id=":V0007_3_0" index="0" speed="6.50" length="18.80" shape="240.01,892.94 239.08,897.49 235.19,899.90 230.46,899.66 227.03,896.24"/>
    </edge>
    <edge id=":V0007_4" function="internal">
        <lane id=":V0007_4_0" index="0" speed="4.08" length="6.40" shape="236.89,893.66 230.66,895.10"/>
    </edge>
    <edge id=":V0007_5" function="internal">
        <lane id=":V0007_5_0" index="0" speed="3.65" length="4.67" shape="233.78,894.38 233.27,895.73 232.58,896.30 231.71,896.09 230.66,895.10"/>
    </edge>
    <edge id=":V0008_0" function="internal">
        <lane id=":V0008_0_0" index="0" speed="3.65" length="4.67" shape="69.71,199.38 70.22,198.03 70.91,197.46 71.78,197.67 72.83,198.66"/>
    </edge>
    <edge id=":V0008_1" function="internal">
        <lane id=":V0008_1_0" index="0" speed="8.01" length="27.05" shape="59.76,200.95 63.16,194.32 69.14,191.05 75.25,191.80 79.06,197.22"/>
        <lane id=":V0008_1_1" index="1" speed="7.38" length="22.65" shape="59.76,200.95 62.61,195.42 67.62,192.72 72.75,193.38 75.94,197.94"/>
        <lane id=":V0008_1_2" index="2" speed="6.69" length="18.26" shape="59.76,200.95 62.06,196.51 66.11,194.39 70.25,194.97 72.83,198.66"/>
    </edge>
    <edge id=":V0010_0" function="internal">
        <lane id=":V0010_0_0" index="0" speed="9.13" length="29.44" shape="487.53,886.28 482.67,892.29 476.43,893.52 470.18,890.47 465.27,883.65"/>
    </edge>
    <edge id=":V0010_1" function="internal">
        <lane id=":V0010_1_0" index="0" speed="7.43" length="20.88" shape="480.79,883.74 478.12,888.40 473.68,889.82 468.92,888.18 465.27,883.65"/>
    </edge>
    <edge id=":V0010_2" function="internal">
        <lane id=":V0010_2_0" index="0" speed="5.11" length="10.62" shape="472.00,880.89 471.35,884.10 470.01,885.63 467.99,885.48 465.27,883.65"/>
    </edge>
    <edge id=":V0010_3" function="internal">
        <lane id=":V0010_3_0" index="0" speed="5.49" length="10.87" shape="461.20,887.00 464.43,888.80 466.18,888.85 466.46,887.13 465.27,883.65"/>
    </edge>
    <edge id=":V0011_0" function="internal">
        <lane id=":V0011_0_0" index="0" speed="19.00" length="18.24" shape="639.74,465.96 636.83,461.45 635.48,457.95 634.13,454.45 631.22,449.94"/>
        <lane id=":V0011_0_1" index="1" speed="19.00" length="18.24" shape="642.26,463.99 639.35,459.48 638.00,455.98 636.65,452.47 633.74,447.96"/>
    </edge>
    <edge id=":V0011_2" function="internal">
        <lane id=":V0011_2_0" index="0" speed="14.95" length="17.55" shape="644.77,462.01 641.40,458.00 639.10,455.04 637.84,451.73 637.58,446.71"/>
        <lane id=":V0011_2_1" index="1" speed="14.41" length="16.28" shape="644.77,462.01 642.06,458.14 640.85,455.05 640.60,451.64 640.78,446.83"/>
        <lane id=":V0011_2_2" index="2" speed="14.18" length="15.76" shape="644.77,462.01 642.64,458.22 642.52,455.08 643.33,451.65 643.97,446.95"/>
    </edge>
    <edge id=":V0012_0" function="internal">
        <lane id=":V0012_0_0" index="0" speed="6.27" length="7.53" shape="102.25,370.90 100.42,370.69 98.83,371.19 97.49,372.41 96.40,374.33"/>
        <lane id=":V0012_0_1" index="1" speed="7.82" length="12.24" shape="103.13,367.82 100.04,367.44 97.39,368.19 95.20,370.07 93.46,373.08"/>
    </edge>
    <edge id=":V0012_2" function="internal">
        <lane id=":V0012_2_0" index="0" speed="15.50" length="15.69" shape="104.01,364.74 99.41,363.95 96.13,364.16 92.85,364.36 88.26,363.57"/>
        <lane id=":V0012_2_1" index="1" speed="15.50" length="15.69" shape="104.01,364.74 89.13,360.49"/>
    </edge>
    <edge id=":V0012_4" function="internal">
        <lane id=":V0012_4_0" index="0" speed="14.00" length="16.57" shape="96.74,357.15 96.34,360.66 97.10,364.50 97.60,368.96 96.40,374.33"/>
        <lane id=":V0012_4_1" index="1" speed="14.00" length="16.57" shape="96.74,357.15 95.85,360.53 95.56,364.03 95.04,368.08 93.46,373.08"/>
        <lane id=":V0012_4_2" index="2" speed="14.00" length="16.57" shape="96.74,357.15 90.51,371.83"/>
    </edge>
    <edge id=":V0012_7" function="internal">
        <lane id=":V0012_7_0" index="0" speed="6.88" length="9.24" shape="96.74,357.15 95.49,359.20 93.80,360.45 91.68,360.88 89.13,360.49"/>
    </edge>
    <edge id=":V0013_0" function="internal">
        <lane id=":V0013_0_0" index="0" speed="13.65" length="20.43" shape="511.44,841.54 508.81,843.11 506.01,846.36 503.03,851.29 499.88,857.90"/>
    </edge>
    <edge id=":V0013_1" function="internal">
        <lane id=":V0013_1_0" index="0" speed="21.00" length="20.52" shape="511.44,841.54 508.10,843.54 504.69,846.82 500.29,850.38 493.98,853.24"/>
        <lane id=":V0013_1_1" index="1" speed="21.00" length="20.52" shape="511.44,841.54 507.91,843.08 504.12,845.32 499.39,847.83 493.09,850.17"/>
        <lane id=":V0013_1_2" index="2" speed="21.00" length="20.52" shape="511.44,841.54 492.20,847.09"/>
    </edge>
    <edge id=":V0013_4" function="internal">
        <lane id=":V0013_4_0" index="0" speed="17.50" length="21.52" shape="508.47,838.16 499.88,857.90"/>
        <lane id=":V0013_4_1" index="1" speed="17.50" length="21.52" shape="505.54,836.88 496.95,856.62"/>
    </edge>
    <edge id=":V0013_6" function="internal">
        <lane id=":V0013_6_0" index="0" speed="13.10" length="18.77" shape="505.54,836.88 502.95,841.87 500.01,845.75 496.73,848.51 493.09,850.17"/>
        <lane id=":V0013_6_1" index="1" speed="12.60" length="17.34" shape="505.54,836.88 503.52,840.25 500.62,843.07 496.85,845.36 492.20,847.09"/>
    </edge>
    <edge id=":V0014_0" function="internal">
        <lane id=":V0014_0_0" index="0" speed="23.00" length="14.97" shape="162.22,613.48 158.85,598.90"/>
        <lane id=":V0014_0_1" index="1" speed="23.00" length="14.97" shape="165.34,612.76 161.97,598.18"/>
    </edge>
    <edge id=":V0014_2" function="internal">
        <lane id=":V0014_2_0" index="0" speed="18.95" length="14.97" shape="165.34,612.76 161.97,598.18"/>
    </edge>
    <edge id=":V0014_3" function="internal">
        <lane id=":V0014_3_0" index="0" speed="13.00" length="83.23" shape="166.89,597.05 156.39,567.69 151.55,558.21 152.37,568.61 158.85,598.90"/>
        <lane id=":V0014_3_1" index="1" speed="6.41" length="18.52" shape="163.76,597.77 161.42,591.24 160.34,589.13 160.53,591.44 161.97,598.18"/>
    </edge>
    <edge id=":V0014_5" function="internal">
        <lane id=":V0014_5_0" index="0" speed="5.80" length="9.14" shape="153.97,604.01 156.65,604.13 158.35,603.31 159.09,601.57 158.85,598.90"/>
        <lane id=":V0014_5_1" index="1" speed="7.47" length="16.06" shape="153.40,607.16 158.10,607.36 161.10,605.93 162.39,602.87 161.97,598.18"/>
    </edge>
    <edge id=":V0015_0" function="internal">
        <lane id=":V0015_0_0" index="0" speed="5.49" length="9.61" shape="388.10,478.44 385.30,477.26 383.55,477.48 382.84,479.10 383.17,482.12"/>
        <lane id=":V0015_0_1" index="1" speed="7.40" length="18.77" shape="389.68,475.66 384.21,473.36 380.78,473.79 379.40,476.95 380.06,482.84"/>
    </edge>
    <edge id=":V0015_2" function="internal">
        <lane id=":V0015_2_0" index="0" speed="13.50" length="17.33" shape="391.25,472.87 386.30,471.22 382.42,471.55 378.53,471.88 373.58,470.23"/>
        <lane id=":V0015_2_1" index="1" speed="13.50" length="17.33" shape="391.25,472.87 386.66,470.85 383.20,470.16 379.75,469.47 375.16,467.45"/>
        <lane id=":V0015_2_2" index="2" speed="13.50" length="17.33" shape="391.25,472.87 376.73,464.66"/>
    </edge>
    <edge id=":V0016_0" function="internal">
        <lane id=":V0016_0_0" index="0" speed="4.53" length="5.95" shape="31.21,354.52 32.62,355.90 33.73,356.25 34.54,355.58 35.05,353.89"/>
    </edge>
    <edge id=":V0016_1" function="internal">
        <lane id=":V0016_1_0" index="0" speed="18.50" length="18.40" shape="28.69,356.50 32.53,360.34 35.70,362.44 38.87,364.54 42.71,368.38"/>
        <lane id=":V0016_1_1" index="1" speed="18.50" length="18.40" shape="26.17,358.47 30.03,362.34 33.21,364.45 36.39,366.56 40.25,370.43"/>
        <lane id=":V0016_1_2" index="2" speed="18.50" length="18.40" shape="26.17,358.47 37.78,372.47"/>
    </edge>
    <edge id=":V0016_4" function="internal">
        <lane id=":V0016_4_0" index="0" speed="20.00" length="20.48" shape="31.78,374.11 35.05,353.89"/>
    </edge>
    <edge id=":V0016_5" function="internal">
        <lane id=":V0016_5_0" index="0" speed="6.52" length="14.06" shape="31.78,374.11 33.01,369.52 34.84,367.38 37.25,367.68 40.25,370.43"/>
        <lane id=":V0016_5_1" index="1" speed="5.51" length="9.56" shape="31.78,374.11 32.61,371.22 33.88,369.98 35.61,370.40 37.78,372.47"/>
    </edge>
    <edge id=":V0017_0" function="internal">
        <lane id=":V0017_0_0" index="0" speed="12.27" length="16.31" shape="259.63,420.04 257.47,416.12 254.84,413.01 251.72,410.71 248.13,409.21"/>
    </edge>
    <edge id=":V0017_1" function="internal">
        <lane id=":V0017_1_0" index="0" speed="16.00" length="18.92" shape="259.63,420.04 251.95,402.75"/>
    </edge>
    <edge id=":V0017_2" function="internal">
        <lane id=":V0017_2_0" index="0" speed="16.50" length="16.35" shape="262.57,416.66 258.12,414.87 255.35,412.93 252.59,411.00 248.13,409.21"/>
        <lane id=":V0017_2_1" index="1" speed="16.50" length="16.35" shape="263.45,413.58 259.00,411.79 256.23,409.86 253.46,407.92 249.01,406.13"/>
    </edge>
    <edge id=":V0017_4" function="internal">
        <lane id=":V0017_4_0" index="0" speed="11.78" length="15.00" shape="264.33,410.50 259.72,408.93 256.12,407.11 253.53,405.05 251.95,402.75"/>
    </edge>
    <edge id=":V0018_0" function="internal">
        <lane id=":V0018_0_0" index="0" speed="13.00" length="34.54" shape="140.75,680.36 127.93,648.28"/>
    </edge>
    <edge id=":V0018_1" function="internal">
        <lane id=":V0018_1_0" index="0" speed="6.67" length="4.56" shape="140.75,680.36 139.42,675.99"/>
        <lane id=":V0018_1_1" index="1" speed="5.48" length="4.18" shape="140.75,680.36 139.73,676.94 139.86,676.34"/>
    </edge>
    <edge id=":V0018_8" function="internal">
        <lane id=":V0018_8_0" index="0" speed="6.67" length="12.08" shape="139.42,675.99 139.05,674.79 139.49,671.92 142.05,671.77 146.76,674.32"/>
    </edge>
    <edge id=":V0018_9" function="internal">
        <lane id=":V0018_9_0" index="0" speed="5.48" length="6.44" shape="139.86,676.34 140.10,675.23 141.84,675.24 144.96,676.97"/>
    </edge>
    <edge id=":V0018_3" function="internal">
        <lane id=":V0018_3_0" index="0" speed="5.48" length="10.62" shape="120.75,652.86 123.87,654.58 125.62,654.59 125.98,652.89 124.96,649.47"/>
        <lane id=":V0018_3_1" index="1" speed="7.68" length="22.64" shape="118.96,655.51 125.62,659.18 129.33,659.20 130.10,655.57 127.93,648.28"/>
    </edge>
    <edge id=":V0018_5" function="internal">
        <lane id=":V0018_5_0" index="0" speed="17.00" length="33.88" shape="117.16,658.16 125.56,662.64 132.86,664.91 140.15,667.19 148.55,671.66"/>
        <lane id=":V0018_5_1" index="1" speed="17.00" length="33.88" shape="117.16,658.16 125.28,663.05 131.96,666.24 138.64,669.43 146.76,674.32"/>
        <lane id=":V0018_5_2" index="2" speed="17.00" length="33.88" shape="117.16,658.16 144.96,676.97"/>
    </edge>
    <edge id=":V0019_0" function="internal">
        <lane id=":V0019_0_0" index="0" speed="5.52" length="9.52" shape="590.34,397.88 588.23,395.77 586.51,395.31 585.18,396.49 584.23,399.31"/>
        <lane id=":V0019_0_1" index="1" speed="7.39" length="18.33" shape="592.85,395.90 588.80,391.85 585.49,390.95 582.92,393.23 581.10,398.66"/>
    </edge>
    <edge id=":V0019_2" function="internal">
        <lane id=":V0019_2_0" index="0" speed="13.00" length="14.16" shape="590.13,386.57 588.81,390.49 587.18,392.94 585.55,395.39 584.23,399.31"/>
        <lane id=":V0019_2_1" index="1" speed="13.00" length="14.16" shape="587.00,385.92 585.68,389.85 584.05,392.29 582.42,394.74 581.10,398.66"/>
    </edge>
    <edge id=":V0020_0" function="internal">
        <lane id=":V0020_0_0" index="0" speed="7.61" length="19.86" shape="81.57,264.85 79.26,256.43 76.99,251.31 74.75,249.48 72.56,250.94"/>
        <lane id=":V0020_0_1" index="1" speed="8.37" length="24.36" shape="81.57,264.85 78.73,254.74 75.85,248.75 72.91,246.87 69.94,249.11"/>
        <lane id=":V0020_0_2" index="2" speed="9.07" length="28.89" shape="81.57,264.85 78.20,253.05 74.70,246.19 71.08,244.27 67.31,247.27"/>
    </edge>
    <edge id=":V0020_3" function="internal">
        <lane id=":V0020_3_0" index="0" speed="20.00" length="49.53" shape="81.57,264.85 67.30,217.38"/>
        <lane id=":V0020_3_1" index="1" speed="20.00" length="49.53" shape="84.69,264.13 70.42,216.66"/>
        <lane id=":V0020_3_2" index="2" speed="20.00" length="49.53" shape="84.69,264.13 73.54,215.94"/>
    </edge>
    <edge id=":V0020_6" function="internal">
        <lane id=":V0020_6_0" index="0" speed="15.28" length="48.40" shape="84.69,264.13 81.02,245.29 79.85,231.27 81.18,222.06 85.01,217.66"/>
        <lane id=":V0020_6_1" index="1" speed="14.84" length="45.60" shape="84.69,264.13 81.37,246.66 80.51,233.59 82.11,224.92 86.18,220.64"/>
        <lane id=":V0020_6_2" index="2" speed="14.39" length="42.84" shape="84.69,264.13 81.71,248.03 81.17,235.91 83.04,227.77 87.35,223.62"/>
    </edge>
    <edge id=":V0020_9" function="internal">
        <lane id=":V0020_9_0" index="0" speed="7.39" length="23.64" shape="84.69,264.13 85.65,258.25 90.20,254.93 96.04,254.87 100.85,258.79"/>
        <lane id=":V0020_9_1" index="1" speed="6.74" length="19.30" shape="84.69,264.13 85.50,259.43 89.29,256.92 94.12,257.08 98.07,260.38"/>
    </edge>
    <edge id=":V0020_11" function="internal">
        <lane id=":V0020_11_0" index="0" speed="3.65" length="4.67" shape="84.69,264.13 85.19,262.78 85.88,262.21 86.75,262.42 87.80,263.41"/>
    </edge>
    <edge id=":V0021_0" function="internal">
        <lane id=":V0021_0_0" index="0" speed="5.60" length="11.04" shape="104.88,351.42 103.76,348.19 102.40,347.19 100.81,348.43 98.98,351.90"/>
    </edge>
    <edge id=":V0021_1" function="internal">
        <lane id=":V0021_1_0" index="0" speed="24.00" length="9.40" shape="104.88,351.42 103.77,348.84 102.30,347.38 100.83,345.91 99.72,343.33"/>
        <lane id=":V0021_1_1" index="1" speed="24.00" length="9.40" shape="104.88,351.42 102.84,342.61"/>
    </edge>
    <edge id=":V0022_0" function="internal">
        <lane id=":V0022_0_0" index="0" speed="9.93" length="14.26" shape="83.16,405.50 81.25,410.48 80.20,414.42 80.00,417.30 80.66,419.14"/>
        <lane id=":V0022_0_1" index="1" speed="11.01" length="17.69" shape="80.22,404.25 78.05,410.11 76.99,414.89 77.04,418.58 78.20,421.18"/>
    </edge>
    <edge id=":V0022_2" function="internal">
        <lane id=":V0022_2_0" index="0" speed="14.50" length="17.33" shape="77.27,403.00 70.50,418.95"/>
    </edge>
    <edge id=":V0022_3" function="internal">
        <lane id=":V0022_3_0" index="0" speed="21.50" length="17.72" shape="72.06,403.76 74.99,408.07 76.36,411.45 77.74,414.83 80.66,419.14"/>
        <lane id=":V0022_3_1" index="1" speed="21.50" length="17.72" shape="69.60,405.80 72.52,410.12 73.90,413.49 75.27,416.87 78.20,421.18"/>
    </edge>
    <edge id=":V0022_5" function="internal">
        <lane id=":V0022_5_0" index="0" speed="9.21" length="6.68" shape="67.13,407.85 69.35,410.96 70.52,413.57"/>
    </edge>
    <edge id=":V0022_6" function="internal">
        <lane id=":V0022_6_0" index="0" speed="9.21" length="5.49" shape="70.52,413.57 70.65,413.84 71.03,416.51 70.50,418.95"/>
    </edge>
    <edge id=":V0023_0" function="internal">
        <lane id=":V0023_0_0" index="0" speed="14.00" length="8.28" shape="41.05,350.10 38.62,349.92 36.89,350.57 35.17,351.22 32.74,351.05"/>
        <lane id=":V0023_0_1" index="1" speed="14.00" length="8.28" shape="41.93,347.02 39.50,346.84 37.77,347.50 36.05,348.15 33.62,347.97"/>
        <lane id=":V0023_0_2" index="2" speed="14.00" length="8.28" shape="41.93,347.02 34.50,344.90"/>
    </edge>
    <edge id=":V0023_3" function="internal">
        <lane id=":V0023_3_0" index="0" speed="6.86" length="9.23" shape="41.93,347.02 39.57,346.00 38.00,344.52 37.24,342.57 37.27,340.16"/>
    </edge>
    <edge id=":V0023_4" function="internal">
        <lane id=":V0023_4_0" index="0" speed="4.73" length="3.90" shape="35.08,353.69 35.05,352.82 34.65,352.09 33.88,351.50 32.74,351.05"/>
    </edge>
    <edge id=":V0023_5" function="internal">
        <lane id=":V0023_5_0" index="0" speed="17.50" length="13.71" shape="35.08,353.69 37.27,340.16"/>
    </edge>
    <edge id=":V0024_0" function="internal">
        <lane id=":V0024_0_0" index="0" speed="7.47" length="11.72" shape="478.25,854.45 474.60,855.85 472.17,857.59 470.94,859.66 470.93,862.08"/>
    </edge>
    <edge id=":V0024_1" function="internal">
        <lane id=":V0024_1_0" index="0" speed="12.00" length="17.37" shape="477.36,851.38 460.68,856.19"/>
    </edge>
    <edge id=":V0024_2" function="internal">
        <lane id=":V0024_2_0" index="0" speed="11.00" length="14.63" shape="470.87,847.56 471.34,851.82 470.90,854.82 470.46,857.82 470.93,862.08"/>
        <lane id=":V0024_2_1" index="1" speed="11.00" length="14.63" shape="467.75,848.28 468.22,852.54 467.78,855.54 467.35,858.54 467.82,862.80"/>
    </edge>
    <edge id=":V0024_4" function="internal">
        <lane id=":V0024_4_0" index="0" speed="6.70" length="9.25" shape="464.63,849.00 464.87,851.58 464.30,853.63 462.90,855.17 460.68,856.19"/>
    </edge>
    <edge id=":V0025_0" function="internal">
        <lane id=":V0025_0_0" index="0" speed="6.07" length="9.07" shape="579.25,675.52 578.57,678.00 578.93,679.93 580.33,681.30 582.77,682.12"/>
    </edge>
    <edge id=":V0025_1" function="internal">
        <lane id=":V0025_1_0" index="0" speed="19.00" length="16.07" shape="579.25,675.52 572.83,690.26"/>
        <lane id=":V0025_1_1" index="1" speed="19.00" length="16.07" shape="576.31,674.24 569.90,688.98"/>
    </edge>
    <edge id=":V0025_3" function="internal">
        <lane id=":V0025_3_0" index="0" speed="10.45" length="23.44" shape="565.90,669.85 568.90,675.85 572.62,680.41 577.05,683.55 582.19,685.27"/>
    </edge>
    <edge id=":V0025_4" function="internal">
        <lane id=":V0025_4_0" index="0" speed="14.57" length="19.82" shape="565.90,669.85 568.34,676.62 569.83,682.06 570.35,686.18 569.90,688.98"/>
    </edge>
    <edge id=":V0025_5" function="internal">
        <lane id=":V0025_5_0" index="0" speed="15.00" length="23.20" shape="561.65,675.02 568.24,677.24 572.47,680.24 576.42,683.20 582.19,685.27"/>
    </edge>
    <edge id=":V0025_6" function="internal">
        <lane id=":V0025_6_0" index="0" speed="8.70" length="19.93" shape="561.08,678.17 567.73,680.00 571.90,682.63 573.60,686.05 572.83,690.26"/>
        <lane id=":V0025_6_1" index="1" speed="7.37" length="13.98" shape="560.51,681.32 565.52,682.60 568.75,684.31 570.21,686.43 569.90,688.98"/>
    </edge>
    <edge id=":V0026_0" function="internal">
        <lane id=":V0026_0_0" index="0" speed="19.00" length="28.99" shape="188.55,713.08 182.01,684.84"/>
    </edge>
    <edge id=":V0026_1" function="internal">
        <lane id=":V0026_1_0" index="0" speed="6.03" length="6.49" shape="188.55,713.08 188.37,710.06 189.64,708.84 191.29,709.21"/>
    </edge>
    <edge id=":V0026_10" function="internal">
        <lane id=":V0026_10_0" index="0" speed="6.03" length="5.92" shape="191.29,709.21 192.36,709.44 196.54,711.85"/>
    </edge>
    <edge id=":V0026_2" function="internal">
        <lane id=":V0026_2_0" index="0" speed="17.48" length="29.02" shape="191.37,682.67 192.46,690.63 192.87,696.59 194.72,701.56 200.13,706.55"/>
        <lane id=":V0026_2_1" index="1" speed="18.23" length="29.02" shape="188.25,683.39 189.53,692.03 190.16,698.45 192.35,703.79 198.33,709.20"/>
        <lane id=":V0026_2_2" index="2" speed="18.94" length="29.02" shape="185.13,684.12 186.59,693.43 187.45,700.31 189.99,706.03 196.54,711.85"/>
    </edge>
    <edge id=":V0026_5" function="internal">
        <lane id=":V0026_5_0" index="0" speed="3.65" length="1.44" shape="185.13,684.12 184.62,685.46"/>
    </edge>
    <edge id=":V0026_11" function="internal">
        <lane id=":V0026_11_0" index="0" speed="3.65" length="3.23" shape="184.62,685.46 183.93,686.03 183.06,685.83 182.01,684.84"/>
    </edge>
    <edge id=":V0026_6" function="internal">
        <lane id=":V0026_6_0" index="0" speed="5.46" length="9.86" shape="174.03,688.90 176.84,690.39 178.59,690.33 179.27,688.72 178.90,685.56"/>
    </edge>
    <edge id=":V0026_7" function="internal">
        <lane id=":V0026_7_0" index="0" speed="20.00" length="31.50" shape="174.03,688.90 200.13,706.55"/>
        <lane id=":V0026_7_1" index="1" speed="20.00" length="31.50" shape="172.24,691.55 198.33,709.20"/>
        <lane id=":V0026_7_2" index="2" speed="20.00" length="31.50" shape="170.44,694.20 196.54,711.85"/>
    </edge>
    <edge id=":V0027_0" function="internal">
        <lane id=":V0027_0_0" index="0" speed="14.50" length="17.91" shape="107.80,606.52 106.11,600.94 105.48,596.40 105.12,592.55 104.25,589.02"/>
    </edge>
    <edge id=":V0027_1" function="internal">
        <lane id=":V0027_1_0" index="0" speed="5.63" length="9.28" shape="110.77,605.33 110.07,602.61 110.54,600.84 112.18,600.03 114.99,600.17"/>
    </edge>
    <edge id=":V0027_2" function="internal">
        <lane id=":V0027_2_0" index="0" speed="5.63" length="9.28" shape="100.03,594.19 102.83,594.33 104.47,593.51 104.94,591.75 104.25,589.02"/>
    </edge>
    <edge id=":V0027_3" function="internal">
        <lane id=":V0027_3_0" index="0" speed="13.00" length="15.79" shape="100.03,594.19 115.56,597.02"/>
        <lane id=":V0027_3_1" index="1" speed="13.00" length="15.79" shape="99.45,597.34 114.99,600.17"/>
    </edge>
    <edge id=":V0028_0" function="internal">
        <lane id=":V0028_0_0" index="0" speed="6.43" length="10.89" shape="552.19,567.55 549.73,566.74 547.72,567.35 546.17,569.39 545.08,572.85"/>
    </edge>
    <edge id=":V0028_1" function="internal">
        <lane id=":V0028_1_0" index="0" speed="20.50" length="13.75" shape="552.19,567.55 548.44,566.00 545.57,565.64 542.70,565.28 538.94,563.73"/>
        <lane id=":V0028_1_1" index="1" speed="20.50" length="13.75" shape="553.77,564.76 550.01,563.21 547.14,562.86 544.28,562.50 540.52,560.95"/>
        <lane id=":V0028_1_2" index="2" speed="20.50" length="13.75" shape="553.77,564.76 542.09,558.16"/>
    </edge>
    <edge id=":V0028_4" function="internal">
        <lane id=":V0028_4_0" index="0" speed="11.50" length="18.08" shape="548.74,555.14 545.08,572.85"/>
    </edge>
    <edge id=":V0028_5" function="internal">
        <lane id=":V0028_5_0" index="0" speed="6.82" length="12.39" shape="548.74,555.14 547.50,559.02 545.71,561.27 543.39,561.92 540.52,560.95"/>
        <lane id=":V0028_5_1" index="1" speed="5.94" length="9.09" shape="548.74,555.14 547.85,557.61 546.45,558.93 544.53,559.12 542.09,558.16"/>
    </edge>
    <edge id=":V0029_0" function="internal">
        <lane id=":V0029_0_0" index="0" speed="17.00" length="60.37" shape="321.84,440.98 309.67,434.80 294.55,428.12 279.16,422.04 266.22,417.70"/>
    </edge>
    <edge id=":V0029_1" function="internal">
        <lane id=":V0029_1_0" index="0" speed="17.00" length="61.93" shape="321.84,440.98 269.57,407.75"/>
        <lane id=":V0029_1_1" index="1" speed="17.00" length="61.93" shape="323.42,438.19 271.15,404.96"/>
    </edge>
    <edge id=":V0029_3" function="internal">
        <lane id=":V0029_3_0" index="0" speed="12.45" length="61.90" shape="324.99,435.41 270.01,406.97"/>
    </edge>
    <edge id=":V0029_4" function="internal">