<?xml version="1.0" encoding="UTF-8"?>

<!-- generated on 2023-06-26 02:05:32 by Eclipse SUMO netconvert Version 1.16.0
<configuration xmlns:xsi="http://www.w3.org/2001/XMLSchema-instance" xsi:noNamespaceSchemaLocation="http://sumo.dlr.de/xsd/netconvertConfiguration.xsd">

    <input>
        <node-files value="data/simulationConfigurations/tests/4\4.nod.xml"/>
        <edge-files value="data/simulationConfigurations/tests/4\4.edg.xml"/>
    </input>

    <output>
        <output-file value="data/simulationConfigurations/tests/4\4.net.xml"/>
    </output>

</configuration>
-->

<net version="1.16" junctionCornerDetail="5" limitTurnSpeed="5.50" xmlns:xsi="http://www.w3.org/2001/XMLSchema-instance" xsi:noNamespaceSchemaLocation="http://sumo.dlr.de/xsd/net_file.xsd">

    <location netOffset="-39.81,-71.19" convBoundary="0.00,0.00,1001.75,844.56" origBoundary="39.81,71.19,1041.57,915.75" projParameter="!"/>

    <edge id=":V0002_0" function="internal">
        <lane id=":V0002_0_0" index="0" speed="6.25" length="15.03" shape="157.93,103.81 155.78,97.76 153.95,94.89 152.44,95.20 151.25,98.67"/>
    </edge>
    <edge id=":V0002_1" function="internal">
        <lane id=":V0002_1_0" index="0" speed="11.53" length="46.22" shape="184.99,124.08 171.13,108.58 160.88,99.17 154.25,95.87 151.25,98.67"/>
    </edge>
    <edge id=":V0002_2" function="internal">
        <lane id=":V0002_2_0" index="0" speed="12.00" length="49.67" shape="192.63,117.17 175.54,104.11 162.95,96.68 154.85,94.86 151.25,98.67"/>
    </edge>
    <edge id=":V0003_0" function="internal">
        <lane id=":V0003_0_0" index="0" speed="5.46" length="9.98" shape="20.21,813.60 18.42,816.31 18.30,818.05 19.86,818.82 23.10,818.64"/>
        <lane id=":V0003_0_1" index="1" speed="7.48" length="20.27" shape="17.74,811.56 14.10,817.06 13.86,820.59 17.04,822.17 23.62,821.80"/>
    </edge>
    <edge id=":V0003_2" function="internal">
        <lane id=":V0003_2_0" index="0" speed="8.42" length="25.84" shape="17.74,811.56 12.94,818.75 12.42,823.47 16.18,825.75 24.23,825.56"/>
    </edge>
    <edge id=":V0003_3" function="internal">
        <lane id=":V0003_3_0" index="0" speed="8.59" length="21.13" shape="3.57,821.03 4.51,822.65 8.16,823.32 14.53,823.03 23.62,821.80"/>
        <lane id=":V0003_3_1" index="1" speed="9.03" length="23.44" shape="3.57,821.03 4.28,824.11 7.94,825.78 14.56,826.07 24.13,824.95"/>
    </edge>
    <edge id=":V0003_5" function="internal">
        <lane id=":V0003_5_0" index="0" speed="9.13" length="23.63" shape="3.57,821.03 4.28,824.17 7.96,825.97 14.61,826.43 24.23,825.56"/>
    </edge>
    <edge id=":V0004_0" function="internal">
        <lane id=":V0004_0_0" index="0" speed="5.77" length="13.14" shape="964.19,695.75 968.76,694.83 970.33,693.74 968.89,692.50 964.44,691.09"/>
        <lane id=":V0004_0_1" index="1" speed="7.27" length="22.00" shape="964.19,695.75 972.00,694.19 974.77,692.38 972.51,690.31 965.22,687.99"/>
        <lane id=":V0004_0_2" index="2" speed="8.51" length="30.86" shape="964.19,695.75 975.23,693.56 979.22,691.02 976.14,688.13 965.99,684.88"/>
    </edge>
    <edge id=":V0004_3" function="internal">
        <lane id=":V0004_3_0" index="0" speed="10.27" length="43.37" shape="964.19,695.75 980.16,693.85 994.44,693.04 1002.93,694.25 1001.52,698.42"/>
        <lane id=":V0004_3_1" index="1" speed="9.65" length="38.09" shape="964.19,695.75 978.86,693.92 991.66,692.89 999.56,693.33 999.56,695.88"/>
    </edge>
    <edge id=":V0006_0" function="internal">
        <lane id=":V0006_0_0" index="0" speed="10.00" length="31.78" shape="812.76,843.86 807.77,845.93 801.12,845.74 792.79,843.29 782.80,838.58"/>
    </edge>
    <edge id=":V0006_1" function="internal">
        <lane id=":V0006_1_0" index="0" speed="15.00" length="55.40" shape="812.76,843.86 806.55,844.61 797.40,839.56 785.30,828.71 770.26,812.06"/>
        <lane id=":V0006_1_1" index="1" speed="15.00" length="50.88" shape="810.81,841.33 805.78,841.41 797.76,836.21 786.73,825.74 772.71,810.00"/>
    </edge>
    <edge id=":V0006_3" function="internal">
        <lane id=":V0006_3_0" index="0" speed="9.00" length="51.61" shape="810.81,841.33 803.87,841.97 795.52,835.52 786.05,823.59 775.78,807.77"/>
        <lane id=":V0006_3_1" index="1" speed="9.00" length="49.76" shape="810.81,841.33 805.17,840.97 797.60,833.95 788.57,821.81 778.51,806.10"/>
    </edge>
    <edge id=":V0006_5" function="internal">
        <lane id=":V0006_5_0" index="0" speed="6.50" length="16.68" shape="810.81,841.33 807.18,843.16 804.31,842.49 802.20,839.31 800.85,833.62"/>
    </edge>
    <edge id=":V0006_6" function="internal">
        <lane id=":V0006_6_0" index="0" speed="3.79" length="4.86" shape="801.81,833.52 801.15,831.82 800.77,831.27 800.67,831.87 800.85,833.62"/>
    </edge>
    <edge id=":V0006_7" function="internal">
        <lane id=":V0006_7_0" index="0" speed="7.99" length="23.18" shape="801.81,833.52 801.66,838.42 797.51,839.85 791.15,838.67 784.32,835.76"/>
    </edge>
    <edge id=":V0006_8" function="internal">
        <lane id=":V0006_8_0" index="0" speed="10.23" length="45.92" shape="801.81,833.52 801.46,838.67 794.35,833.57 783.69,822.57 772.71,810.00"/>
    </edge>
    <edge id=":V0006_9" function="internal">
        <lane id=":V0006_9_0" index="0" speed="10.62" length="52.55" shape="801.81,833.52 785.70,835.40 776.45,831.46 774.05,821.69 778.51,806.10"/>
    </edge>
    <edge id=":V0007_0" function="internal">
        <lane id=":V0007_0_0" index="0" speed="8.58" length="10.77" shape="599.65,736.11 597.85,734.26 597.23,731.31 597.80,727.26 598.15,726.23"/>
    </edge>
    <edge id=":V0007_5" function="internal">
        <lane id=":V0007_5_0" index="0" speed="8.58" length="4.37" shape="598.15,726.23 599.55,722.09"/>
    </edge>
    <edge id=":V0007_1" function="internal">
        <lane id=":V0007_1_0" index="0" speed="8.53" length="17.23" shape="580.89,719.38 586.94,722.02 591.58,723.15 594.79,722.77 596.59,720.88"/>
        <lane id=":V0007_1_1" index="1" speed="9.68" length="22.49" shape="579.45,722.23 586.94,725.36 592.78,726.38 596.99,725.29 599.55,722.09"/>
    </edge>
    <edge id=":V0007_3" function="internal">
        <lane id=":V0007_3_0" index="0" speed="12.13" length="19.66" shape="578.61,727.69 585.84,726.26 591.25,724.65 594.83,722.86 596.59,720.88"/>
        <lane id=":V0007_3_1" index="1" speed="13.05" length="22.85" shape="579.13,730.84 587.17,729.19 593.26,727.18 597.38,724.81 599.55,722.09"/>
    </edge>
    <edge id=":V0008_0" function="internal">
        <lane id=":V0008_0_0" index="0" speed="7.05" length="18.04" shape="681.44,27.48 681.09,19.50 680.07,14.72 678.38,13.16 676.03,14.81"/>
    </edge>
    <edge id=":V0008_1" function="internal">
        <lane id=":V0008_1_0" index="0" speed="8.39" length="24.59" shape="688.37,27.21 686.37,17.67 683.65,12.42 680.20,11.46 676.03,14.81"/>
    </edge>
    <edge id=":V0009_0" function="internal">
        <lane id=":V0009_0_0" index="0" speed="8.37" length="31.62" shape="675.00,506.78 663.71,509.48 660.05,511.55 664.01,512.98 675.58,513.76"/>
    </edge>
    <edge id=":V0009_1" function="internal">
        <lane id=":V0009_1_0" index="0" speed="3.25" length="2.25" shape="675.00,506.78 675.73,506.66 676.40,506.52 676.78,506.30 676.61,505.96"/>
    </edge>
    <edge id=":V0009_2" function="internal">
        <lane id=":V0009_2_0" index="0" speed="7.93" length="11.84" shape="675.00,506.78 678.20,505.74 680.48,504.07 681.85,501.76 682.30,498.84"/>
        <lane id=":V0009_2_1" index="1" speed="9.30" length="16.61" shape="675.27,509.99 679.75,508.53 682.95,506.18 684.87,502.95 685.50,498.83"/>
    </edge>
    <edge id=":V0009_4" function="internal">
        <lane id=":V0009_4_0" index="0" speed="8.85" length="15.71" shape="675.54,513.20 681.18,512.41 685.46,512.58 688.39,513.69 689.96,515.76"/>
    </edge>
    <edge id=":V0009_5" function="internal">
        <lane id=":V0009_5_0" index="0" speed="5.44" length="7.62" shape="679.56,518.33 679.98,516.40 679.46,514.99 678.00,514.12 675.58,513.76"/>
    </edge>
    <edge id=":V0009_6" function="internal">
        <lane id=":V0009_6_0" index="0" speed="8.90" length="13.74" shape="679.56,518.33 680.52,514.76 680.35,511.51 679.04,508.58 676.61,505.96"/>
    </edge>
    <edge id=":V0009_7" function="internal">
        <lane id=":V0009_7_0" index="0" speed="9.50" length="20.54" shape="679.56,518.33 681.56,512.83 682.34,508.86 682.41,504.75 682.30,498.84"/>
        <lane id=":V0009_7_1" index="1" speed="9.50" length="20.54" shape="682.52,519.54 684.59,513.81 685.44,509.47 685.58,504.98 685.50,498.83"/>
    </edge>
    <edge id=":V0009_9" function="internal">
        <lane id=":V0009_9_0" index="0" speed="6.09" length="12.81" shape="682.52,519.54 684.76,514.99 686.74,512.83 688.48,513.09 689.96,515.76"/>
    </edge>
    <edge id=":V0011_0" function="internal">
        <lane id=":V0011_0_0" index="0" speed="7.71" length="9.85" shape="277.73,511.41 279.08,501.65"/>
    </edge>
    <edge id=":V0011_1" function="internal">
        <lane id=":V0011_1_0" index="0" speed="23.00" length="7.81" shape="280.79,510.49 280.65,508.29 281.33,506.73 282.00,505.16 281.86,502.97"/>
    </edge>
    <edge id=":V0011_2" function="internal">
        <lane id=":V0011_2_0" index="0" speed="18.00" length="12.07" shape="288.54,508.34 285.32,507.25 283.51,504.99 281.85,502.74 279.08,501.65"/>
    </edge>
    <edge id=":V0011_3" function="internal">
        <lane id=":V0011_3_0" index="0" speed="6.77" length="7.43" shape="288.64,505.15 285.90,504.94 283.86,504.51 282.51,503.85 281.86,502.97"/>
    </edge>
    <edge id=":V0012_0" function="internal">
        <lane id=":V0012_0_0" index="0" speed="10.50" length="11.20" shape="785.85,726.04 784.30,714.94"/>
    </edge>
    <edge id=":V0012_1" function="internal">
        <lane id=":V0012_1_0" index="0" speed="6.50" length="9.03" shape="785.85,726.04 785.86,723.56 786.66,721.68 788.24,720.40 790.62,719.72"/>
    </edge>
    <edge id=":V0012_2" function="internal">
        <lane id=":V0012_2_0" index="0" speed="6.50" length="9.03" shape="779.53,721.25 781.90,720.57 783.49,719.29 784.29,717.41 784.30,714.94"/>
    </edge>
    <edge id=":V0012_3" function="internal">
        <lane id=":V0012_3_0" index="0" speed="17.50" length="11.20" shape="779.53,721.25 790.62,719.72"/>
    </edge>
    <edge id=":V0013_0" function="internal">
        <lane id=":V0013_0_0" index="0" speed="18.00" length="39.57" shape="348.09,416.76 322.88,447.26"/>
        <lane id=":V0013_0_1" index="1" speed="18.00" length="39.57" shape="345.62,414.72 320.41,445.23"/>
    </edge>
    <edge id=":V0013_2" function="internal">
        <lane id=":V0013_2_0" index="0" speed="5.55" length="4.33" shape="345.62,414.72 342.89,417.54 342.50,417.67"/>
    </edge>
    <edge id=":V0013_6" function="internal">
        <lane id=":V0013_6_0" index="0" speed="5.55" length="7.07" shape="342.50,417.67 341.21,418.12 340.58,416.46 341.01,412.55"/>
    </edge>
    <edge id=":V0013_3" function="internal">
        <lane id=":V0013_3_0" index="0" speed="5.55" length="11.41" shape="327.49,449.43 327.92,445.52 327.29,443.86 325.61,444.44 322.88,447.26"/>
    </edge>
    <edge id=":V0013_4" function="internal">
        <lane id=":V0013_4_0" index="0" speed="20.00" length="38.75" shape="330.63,450.03 337.87,411.96"/>
        <lane id=":V0013_4_1" index="1" speed="20.00" length="38.75" shape="333.77,450.62 341.01,412.55"/>
    </edge>
    <edge id=":V0014_0" function="internal">
        <lane id=":V0014_0_0" index="0" speed="22.50" length="17.35" shape="635.12,647.10 623.93,633.85"/>
    </edge>
    <edge id=":V0014_1" function="internal">
        <lane id=":V0014_1_0" index="0" speed="9.84" length="13.92" shape="635.12,647.10 632.83,643.81 631.56,640.57 631.31,637.38 632.08,634.24"/>
        <lane id=":V0014_1_1" index="1" speed="9.24" length="12.21" shape="635.12,647.10 633.89,644.92 633.47,642.26 633.85,639.10 635.04,635.46"/>
    </edge>
    <edge id=":V0014_3" function="internal">
        <lane id=":V0014_3_0" index="0" speed="9.41" length="12.68" shape="626.87,646.96 627.02,645.09 626.17,642.62 624.32,639.57 621.48,635.91"/>
        <lane id=":V0014_3_1" index="1" speed="10.55" length="16.11" shape="629.83,648.17 630.22,645.42 629.37,642.12 627.27,638.26 623.93,633.85"/>
    </edge>
    <edge id=":V0014_5" function="internal">
        <lane id=":V0014_5_0" index="0" speed="12.50" length="14.51" shape="629.83,648.17 630.53,643.83 629.47,640.60 628.42,637.37 629.12,633.03"/>
        <lane id=":V0014_5_1" index="1" speed="12.50" length="14.51" shape="629.83,648.17 630.93,644.16 630.95,641.21 630.97,638.26 632.08,634.24"/>
        <lane id=":V0014_5_2" index="2" speed="12.50" length="14.51" shape="629.83,648.17 635.04,635.46"/>
    </edge>
    <edge id=":V0015_0" function="internal">
        <lane id=":V0015_0_0" index="0" speed="12.50" length="20.69" shape="607.68,533.93 604.13,529.11 601.03,526.16 597.89,523.15 594.24,518.16"/>
        <lane id=":V0015_0_1" index="1" speed="12.50" length="20.69" shape="610.41,532.26 606.86,527.44 603.76,524.48 600.62,521.47 596.97,516.48"/>
        <lane id=":V0015_0_2" index="2" speed="12.50" length="20.69" shape="610.41,532.26 599.70,514.81"/>
    </edge>
    <edge id=":V0015_3" function="internal">
        <lane id=":V0015_3_0" index="0" speed="6.77" length="12.50" shape="610.41,532.26 608.64,528.55 608.43,525.69 609.77,523.68 612.66,522.52"/>
        <lane id=":V0015_3_1" index="1" speed="5.88" length="9.11" shape="610.41,532.26 609.35,529.83 609.48,527.92 610.79,526.53 613.29,525.66"/>
    </edge>
    <edge id=":V0015_5" function="internal">
        <lane id=":V0015_5_0" index="0" speed="5.62" length="8.21" shape="590.68,523.65 593.22,522.84 594.66,521.66 595.00,520.10 594.24,518.16"/>
    </edge>
    <edge id=":V0015_6" function="internal">
        <lane id=":V0015_6_0" index="0" speed="24.50" length="21.77" shape="590.68,523.65 612.03,519.38"/>
        <lane id=":V0015_6_1" index="1" speed="24.50" length="21.77" shape="591.31,526.79 612.66,522.52"/>
        <lane id=":V0015_6_2" index="2" speed="24.50" length="21.77" shape="591.94,529.93 613.29,525.66"/>
    </edge>
    <edge id=":V0016_0" function="internal">
        <lane id=":V0016_0_0" index="0" speed="15.50" length="11.88" shape="374.18,261.98 365.00,254.44"/>
        <lane id=":V0016_0_1" index="1" speed="15.50" length="11.88" shape="376.21,259.50 367.03,251.96"/>
    </edge>
    <edge id=":V0016_2" function="internal">
        <lane id=":V0016_2_0" index="0" speed="8.81" length="10.78" shape="376.21,259.50 373.97,257.30 372.50,255.02 371.81,252.65 371.89,250.20"/>
    </edge>
    <edge id=":V0016_3" function="internal">
        <lane id=":V0016_3_0" index="0" speed="8.87" length="10.94" shape="368.96,265.61 368.82,263.84 367.77,261.80 365.82,259.49 362.97,256.91"/>
    </edge>
    <edge id=":V0016_4" function="internal">
        <lane id=":V0016_4_0" index="0" speed="18.50" length="15.68" shape="368.96,265.61 371.89,250.20"/>
    </edge>
    <edge id=":V0017_0" function="internal">
        <lane id=":V0017_0_0" index="0" speed="6.23" length="9.05" shape="253.92,539.80 251.96,538.21 250.03,537.71 248.13,538.31 246.25,540.01"/>
    </edge>
    <edge id=":V0017_1" function="internal">
        <lane id=":V0017_1_0" index="0" speed="20.00" length="15.78" shape="256.28,537.64 245.59,526.03"/>
        <lane id=":V0017_1_1" index="1" speed="20.00" length="15.78" shape="258.63,535.47 247.95,523.86"/>
    </edge>
    <edge id=":V0017_3" function="internal">
        <lane id=":V0017_3_0" index="0" speed="16.50" length="18.57" shape="258.08,525.69 246.25,540.01"/>
        <lane id=":V0017_3_1" index="1" speed="16.50" length="18.57" shape="255.61,523.66 243.79,537.97"/>
    </edge>
    <edge id=":V0017_5" function="internal">
        <lane id=":V0017_5_0" index="0" speed="6.23" length="9.05" shape="255.61,523.66 253.74,525.36 251.84,525.96 249.91,525.46 247.95,523.86"/>
    </edge>
    <edge id=":V0018_0" function="internal">
        <lane id=":V0018_0_0" index="0" speed="5.61" length="9.31" shape="745.36,636.34 742.54,636.01 740.86,636.71 740.32,638.45 740.91,641.22"/>
    </edge>
    <edge id=":V0018_1" function="internal">
        <lane id=":V0018_1_0" index="0" speed="12.00" length="26.07" shape="746.14,633.23 737.69,630.61 731.07,627.82 725.91,625.39 721.85,623.86"/>
    </edge>
    <edge id=":V0018_2" function="internal">
        <lane id=":V0018_2_0" index="0" speed="21.00" length="25.95" shape="726.30,618.98 728.20,622.88 731.10,627.79 734.49,634.13 737.89,642.28"/>
        <lane id=":V0018_2_1" index="1" speed="21.00" length="25.95" shape="726.30,618.98 734.87,643.35"/>
    </edge>
    <edge id=":V0018_4" function="internal">
        <lane id=":V0018_4_0" index="0" speed="5.61" length="9.31" shape="726.30,618.98 726.89,621.75 726.34,623.49 724.66,624.19 721.85,623.86"/>
    </edge>
    <edge id=":V0019_0" function="internal">
        <lane id=":V0019_0_0" index="0" speed="9.50" length="24.49" shape="620.69,751.10 614.50,747.19 609.13,743.04 604.59,739.34 600.87,736.77"/>
    </edge>
    <edge id=":V0019_1" function="internal">
        <lane id=":V0019_1_0" index="0" speed="6.62" length="4.52" shape="622.21,748.28 618.44,745.80"/>
        <lane id=":V0019_1_1" index="1" speed="5.46" length="4.16" shape="622.21,748.28 619.34,746.36 619.02,745.73"/>
    </edge>
    <edge id=":V0019_7" function="internal">
        <lane id=":V0019_7_0" index="0" speed="6.62" length="11.61" shape="618.44,745.80 617.52,745.19 616.05,742.73 617.80,740.89 622.76,739.67"/>
    </edge>
    <edge id=":V0019_8" function="internal">
        <lane id=":V0019_8_0" index="0" speed="5.46" length="6.24" shape="619.02,745.73 618.55,744.81 619.83,743.64 623.20,742.84"/>
    </edge>
    <edge id=":V0019_3" function="internal">
        <lane id=":V0019_3_0" index="0" speed="5.50" length="15.19" shape="604.54,745.42 608.00,744.37 608.55,742.57 606.17,740.04 600.87,736.77"/>
    </edge>
    <edge id=":V0019_4" function="internal">
        <lane id=":V0019_4_0" index="0" speed="9.00" length="19.36" shape="604.54,745.42 608.02,743.93 611.59,741.21 616.08,738.37 622.32,736.50"/>
        <lane id=":V0019_4_1" index="1" speed="9.00" length="19.36" shape="604.54,745.42 608.15,744.41 611.96,742.78 616.62,741.02 622.76,739.67"/>
        <lane id=":V0019_4_2" index="2" speed="9.00" length="19.36" shape="604.54,745.42 623.20,742.84"/>
    </edge>
    <edge id=":V0020_0" function="internal">
        <lane id=":V0020_0_0" index="0" speed="11.21" length="17.01" shape="285.99,527.71 284.41,524.60 281.67,521.98 277.78,519.85 272.75,518.20"/>
        <lane id=":V0020_0_1" index="1" speed="12.22" length="20.31" shape="289.06,526.78 287.13,522.89 283.90,519.64 279.36,517.04 273.53,515.10"/>
    </edge>
    <edge id=":V0020_2" function="internal">
        <lane id=":V0020_2_0" index="0" speed="17.50" length="18.40" shape="289.06,526.78 286.53,521.87 283.42,519.19 280.32,516.52 277.79,511.60"/>
        <lane id=":V0020_2_1" index="1" speed="17.50" length="18.40" shape="289.06,526.78 287.04,521.83 284.95,518.73 282.87,515.63 280.85,510.68"/>
        <lane id=":V0020_2_2" index="2" speed="17.50" length="18.40" shape="289.06,526.78 283.91,509.75"/>
    </edge>
    <edge id=":V0020_5" function="internal">
        <lane id=":V0020_5_0" index="0" speed="20.00" length="20.38" shape="292.52,523.14 272.75,518.20"/>
        <lane id=":V0020_5_1" index="1" speed="20.00" length="20.38" shape="293.30,520.04 273.53,515.10"/>
        <lane id=":V0020_5_2" index="2" speed="20.00" length="20.38" shape="294.07,516.93 274.30,511.99"/>
    </edge>
    <edge id=":V0020_8" function="internal">
        <lane id=":V0020_8_0" index="0" speed="10.54" length="14.96" shape="294.07,516.93 288.65,515.39 284.64,513.84 282.04,512.27 280.85,510.68"/>
        <lane id=":V0020_8_1" index="1" speed="9.85" length="12.97" shape="294.07,516.93 290.20,515.68 287.21,514.06 285.12,512.09 283.91,509.75"/>
    </edge>
    <edge id=":V0021_0" function="internal">
        <lane id=":V0021_0_0" index="0" speed="23.50" length="0.71" shape="281.80,502.77 281.71,502.55 281.60,502.44 281.47,502.45 281.33,502.58"/>
    </edge>
    <edge id=":V0021_1" function="internal">
        <lane id=":V0021_1_0" index="0" speed="14.00" length="15.46" shape="281.80,502.77 280.34,499.67 278.37,496.94 276.24,493.71 274.33,489.09"/>
        <lane id=":V0021_1_1" index="1" speed="14.00" length="15.46" shape="281.80,502.77 277.39,488.17"/>
    </edge>
    <edge id=":V0021_3" function="internal">
        <lane id=":V0021_3_0" index="0" speed="25.50" length="11.72" shape="286.33,491.51 278.86,500.54"/>
        <lane id=":V0021_3_1" index="1" speed="25.50" length="11.72" shape="283.86,489.47 276.40,498.50"/>
    </edge>
    <edge id=":V0021_5" function="internal">
        <lane id=":V0021_5_0" index="0" speed="5.61" length="9.32" shape="283.86,489.47 281.79,491.41 280.02,491.84 278.55,490.76 277.39,488.17"/>
    </edge>
    <edge id=":V0022_0" function="internal">
        <lane id=":V0022_0_0" index="0" speed="20.00" length="17.72" shape="329.48,509.60 311.77,509.05"/>
        <lane id=":V0022_0_1" index="1" speed="20.00" length="17.72" shape="329.58,506.40 311.87,505.86"/>
        <lane id=":V0022_0_2" index="2" speed="20.00" length="17.72" shape="329.68,503.20 311.97,502.66"/>
    </edge>
    <edge id=":V0022_3" function="internal">
        <lane id=":V0022_3_0" index="0" speed="7.04" length="12.03" shape="329.68,503.20 325.77,502.68 323.15,501.42 321.81,499.41 321.76,496.65"/>
        <lane id=":V0022_3_1" index="1" speed="6.19" length="9.05" shape="329.68,503.20 327.18,502.76 325.55,501.62 324.79,499.78 324.91,497.25"/>
    </edge>
    <edge id=":V0022_5" function="internal">
        <lane id=":V0022_5_0" index="0" speed="6.59" length="10.42" shape="318.26,515.06 318.27,512.52 317.19,510.67 315.02,509.52 311.77,509.05"/>
        <lane id=":V0022_5_1" index="1" speed="8.07" length="16.18" shape="321.40,515.65 321.48,511.50 319.92,508.48 316.72,506.60 311.87,505.86"/>
    </edge>
    <edge id=":V0022_7" function="internal">
        <lane id=":V0022_7_0" index="0" speed="9.50" length="19.32" shape="321.40,515.65 321.49,509.86 320.01,505.85 318.53,501.85 318.62,496.05"/>
        <lane id=":V0022_7_1" index="1" speed="9.50" length="19.32" shape="321.40,515.65 321.96,510.06 321.58,506.15 321.21,502.25 321.76,496.65"/>
        <lane id=":V0022_7_2" index="2" speed="9.50" length="19.32" shape="321.40,515.65 324.91,497.25"/>
    </edge>
    <edge id=":V0023_0" function="internal">
        <lane id=":V0023_0_0" index="0" speed="10.28" length="11.96" shape="278.88,501.65 277.28,502.89 274.68,505.71 272.15,508.67 270.75,510.37"/>
    </edge>
    <edge id=":V0023_1" function="internal">
        <lane id=":V0023_1_0" index="0" speed="22.50" length="15.81" shape="278.88,501.65 275.53,502.54 272.42,504.65 268.70,506.74 263.54,507.58"/>
        <lane id=":V0023_1_1" index="1" speed="22.50" length="15.81" shape="278.88,501.65 275.48,502.04 272.29,503.05 268.58,504.03 263.64,504.38"/>
        <lane id=":V0023_1_2" index="2" speed="22.50" length="15.81" shape="278.88,501.65 263.74,501.18"/>
    </edge>
    <edge id=":V0023_4" function="internal">
        <lane id=":V0023_4_0" index="0" speed="17.00" length="14.54" shape="281.20,502.73 277.92,505.13 274.74,505.53 271.56,505.93 268.28,508.33"/>
    </edge>
    <edge id=":V0023_5" function="internal">
        <lane id=":V0023_5_0" index="0" speed="11.82" length="15.97" shape="278.74,500.69 276.54,502.44 273.29,503.64 268.99,504.29 263.64,504.38"/>
        <lane id=":V0023_5_1" index="1" speed="10.74" length="13.09" shape="276.27,498.66 274.61,499.88 271.96,500.71 268.34,501.14 263.74,501.18"/>
    </edge>
    <edge id=":V0024_0" function="internal">
        <lane id=":V0024_0_0" index="0" speed="8.46" length="11.31" shape="775.05,648.60 774.28,646.29 772.66,644.37 770.21,642.85 766.92,641.72"/>
    </edge>
    <edge id=":V0024_1" function="internal">
        <lane id=":V0024_1_0" index="0" speed="12.50" length="17.04" shape="775.05,648.60 772.69,631.72"/>
    </edge>
    <edge id=":V0024_2" function="internal">
        <lane id=":V0024_2_0" index="0" speed="12.50" length="13.25" shape="779.26,644.81 775.67,643.39 773.48,641.71 771.29,640.03 767.70,638.62"/>
        <lane id=":V0024_2_1" index="1" speed="12.50" length="13.25" shape="780.04,641.70 776.44,640.29 774.26,638.61 772.07,636.93 768.47,635.51"/>
    </edge>
    <edge id=":V0024_4" function="internal">
        <lane id=":V0024_4_0" index="0" speed="8.46" length="11.31" shape="780.82,638.60 777.52,637.47 775.07,635.95 773.46,634.04 772.69,631.72"/>
    </edge>
    <edge id=":V0025_0" function="internal">
        <lane id=":V0025_0_0" index="0" speed="7.36" length="13.48" shape="397.64,365.92 395.52,364.49 392.98,364.70 390.02,366.57 386.65,370.09"/>
    </edge>
    <edge id=":V0025_1" function="internal">
        <lane id=":V0025_1_0" index="0" speed="20.50" length="15.74" shape="397.64,365.92 394.73,364.04 391.10,363.14 387.07,361.79 383.01,358.53"/>
        <lane id=":V0025_1_1" index="1" speed="20.50" length="15.74" shape="397.64,365.92 395.07,363.66 392.20,361.97 389.01,359.89 385.46,356.47"/>
        <lane id=":V0025_1_2" index="2" speed="20.50" length="15.74" shape="397.64,365.92 387.90,354.40"/>
    </edge>
    <edge id=":V0025_4" function="internal">
        <lane id=":V0025_4_0" index="0" speed="8.50" length="17.93" shape="395.49,354.36 393.57,357.47 392.03,361.06 390.00,365.24 386.65,370.09"/>
        <lane id=":V0025_4_1" index="1" speed="8.50" length="17.93" shape="395.49,354.36 384.18,368.05"/>
    </edge>
    <edge id=":V0025_6" function="internal">
        <lane id=":V0025_6_0" index="0" speed="7.00" length="12.08" shape="395.49,354.36 392.67,357.14 390.06,358.42 387.66,358.19 385.46,356.47"/>
        <lane id=":V0025_6_1" index="1" speed="6.15" length="9.06" shape="395.49,354.36 393.60,356.07 391.71,356.65 389.81,356.09 387.90,354.40"/>
    </edge>
    <edge id=":V0026_0" function="internal">
        <lane id=":V0026_0_0" index="0" speed="15.50" length="14.23" shape="650.47,603.63 643.03,591.50"/>
        <lane id=":V0026_0_1" index="1" speed="15.50" length="14.23" shape="653.20,601.96 645.75,589.83"/>
    </edge>
    <edge id=":V0026_2" function="internal">
        <lane id=":V0026_2_0" index="0" speed="9.98" length="11.71" shape="653.20,601.96 652.21,599.63 651.92,596.97 652.31,593.98 653.39,590.66"/>
    </edge>
    <edge id=":V0026_3" function="internal">
        <lane id=":V0026_3_0" index="0" speed="8.92" length="9.27" shape="642.47,600.45 643.41,597.67 643.82,595.26 643.69,593.20 643.03,591.50"/>
        <lane id=":V0026_3_1" index="1" speed="10.20" length="12.26" shape="645.43,601.66 646.59,598.14 647.03,595.00 646.75,592.23 645.75,589.83"/>
    </edge>
    <edge id=":V0026_5" function="internal">
        <lane id=":V0026_5_0" index="0" speed="12.50" length="13.45" shape="648.39,602.88 649.43,599.01 649.41,596.16 649.39,593.32 650.43,589.45"/>
        <lane id=":V0026_5_1" index="1" speed="12.50" length="13.45" shape="648.39,602.88 653.39,590.66"/>
    </edge>
    <edge id=":V0027_0" function="internal">
        <lane id=":V0027_0_0" index="0" speed="22.00" length="21.66" shape="708.31,738.71 704.27,733.15 701.42,728.07 699.18,723.72 696.95,720.30"/>
    </edge>
    <edge id=":V0027_1" function="internal">
        <lane id=":V0027_1_0" index="0" speed="5.63" length="9.29" shape="710.75,736.64 709.23,734.27 709.12,732.45 710.42,731.16 713.14,730.42"/>
    </edge>
    <edge id=":V0027_2" function="internal">
        <lane id=":V0027_2_0" index="0" speed="5.63" length="9.29" shape="694.57,726.52 697.28,725.78 698.59,724.50 698.48,722.67 696.95,720.30"/>
    </edge>
    <edge id=":V0027_3" function="internal">
        <lane id=":V0027_3_0" index="0" speed="9.50" length="17.86" shape="695.01,729.69 712.70,727.25"/>
        <lane id=":V0027_3_1" index="1" speed="9.50" length="17.86" shape="695.44,732.86 713.14,730.42"/>
    </edge>
    <edge id=":V0028_0" function="internal">
        <lane id=":V0028_0_0" index="0" speed="17.50" length="43.22" shape="465.36,563.05 423.43,552.57"/>
        <lane id=":V0028_0_1" index="1" speed="17.50" length="43.22" shape="466.14,559.94 424.21,549.46"/>
    </edge>
    <edge id=":V0028_2" function="internal">
        <lane id=":V0028_2_0" index="0" speed="7.02" length="4.87" shape="466.14,559.94 461.51,558.45"/>
        <lane id=":V0028_2_1" index="1" speed="5.64" length="4.52" shape="466.14,559.94 462.10,558.63 461.90,558.44"/>
    </edge>
    <edge id=":V0028_8" function="internal">
        <lane id=":V0028_8_0" index="0" speed="7.02" length="15.05" shape="461.51,558.45 459.34,557.75 456.99,555.69 459.08,553.74 465.62,551.93"/>
    </edge>
    <edge id=":V0028_9" function="internal">
        <lane id=":V0028_9_0" index="0" speed="5.64" length="7.61" shape="461.90,558.44 460.77,557.38 462.16,556.19 466.25,555.07"/>
    </edge>
    <edge id=":V0028_4" function="internal">
        <lane id=":V0028_4_0" index="0" speed="5.64" length="12.14" shape="422.54,560.55 426.64,559.43 428.02,558.24 426.69,556.99 422.66,555.67"/>
    </edge>
    <edge id=":V0028_5" function="internal">
        <lane id=":V0028_5_0" index="0" speed="12.00" length="44.01" shape="422.54,560.55 465.00,548.79"/>
        <lane id=":V0028_5_1" index="1" speed="12.00" length="44.01" shape="423.17,563.69 465.62,551.93"/>
        <lane id=":V0028_5_2" index="2" speed="12.00" length="44.01" shape="423.17,563.69 466.25,555.07"/>
    </edge>
    <edge id=":V0029_0" function="internal">
        <lane id=":V0029_0_0" index="0" speed="24.00" length="45.98" shape="515.61,383.95 509.64,376.99 500.73,369.25 490.62,361.33 481.07,353.81"/>
        <lane id=":V0029_0_1" index="1" speed="24.00" length="47.03" shape="518.34,382.28 512.26,375.19 503.11,367.18 492.76,358.98 483.10,351.33"/>
    </edge>
    <edge id=":V0029_2" function="internal">