<nodes><node id="V0001" x="436.3333333333333" y="824.1216666666666" type="priority" /><node id="V0002" x="242.72416666666666" y="183.27416666666667" type="priority" /><node id="V0003" x="49.7655" y="1127.1499999999999" type="priority" /><node id="V0004" x="1301.9583333333333" y="954.2083333333334" type="priority" /><node id="V0005" x="536.0675" y="299.7325" type="priority" /><node id="V0006" x="1054.7583333333334" y="1144.6916666666666" type="priority" /><node id="V0007" x="795.8816666666667" y="1004.9916666666667" type="priority" /><node id="V0008" x="907.5" y="88.99166666666667" type="priority" /><node id="V0009" x="908.6750000000001" y="729.6366666666667" type="priority" /><node id="V0010" x="333.18083333333334" y="712.0575" type="priority" /><node id="V0011" x="403.1225" y="714.1941666666667" type="priority" /><node id="V0012" x="1033.3666666666666" y="991.3083333333334" type="priority" /><node id="V0013" x="477.06333333333333" y="609.97" type="priority" /><node id="V0014" x="841.8916666666668" y="892.6666666666666" type="priority" /><node id="V0015" x="811.8616666666667" y="749.0033333333334" type="priority" /><node id="V0016" x="515.6333333333333" y="407.1741666666667" type="priority" /><node id="V0017" x="364.55583333333334" y="746.1433333333333" type="priority" /><node id="V0018" x="957.4083333333333" y="868.0916666666667" type="priority" /><node id="V0019" x="824.0808333333333" y="1020.2083333333334" type="priority" /><node id="V0020" x="408.1375" y="730.7941666666667" type="priority" /><node id="V0021" x="399.8641666666667" y="703.4083333333333" type="priority" /><node id="V0022" x="456.92833333333334" y="715.8375" type="priority" /><node id="V0023" x="391.2516666666667" y="713.8316666666666" type="priority" /><node id="V0024" x="1018.3000000000001" y="883.3083333333334" type="priority" /><node id="V0025" x="539.3983333333333" y="534.5225" type="priority" /><node id="V0026" x="865.1750000000001" y="835.8416666666667" type="priority" /><node id="V0027" x="936.5083333333333" y="1004.6833333333334" type="priority" /><node id="V0028" x="628.07" y="785.7674999999999" type="priority" /><node id="V0029" x="689.6766666666667" y="549.9633333333334" type="priority" /><node id="V0030" x="500.2316666666666" y="488.15166666666664" type="priority" /><node id="V0031" x="1002.2833333333333" y="995.6" type="priority" /><node id="V0032" x="382.52666666666664" y="724.3924999999999" type="priority" /><node id="V0033" x="698.7816666666666" y="723.225" type="priority" /><node id="V0034" x="451.9983333333333" y="741.7575" type="priority" /><node id="V0035" x="620.1783333333334" y="436.75" type="priority" /><node id="V0036" x="861.7583333333333" y="844.1833333333334" type="priority" /><node id="V0037" x="966.2916666666666" y="1000.5666666666666" type="priority" /><node id="V0038" x="733.7516666666667" y="764.6283333333334" type="priority" /><node id="V0039" x="797.8958333333334" y="726.2525" type="priority" /><node id="V0040" x="592.5066666666667" y="470.2425" type="priority" /><node id="V0041" x="871.8333333333334" y="846.6999999999999" type="priority" /><node id="V0042" x="784.6675" y="824.9108333333334" type="priority" /></nodes>