<nodes><node id="V0001" x="349.06666666666666" y="659.2973333333333" type="priority" /><node id="V0002" x="194.17933333333335" y="146.61933333333334" type="priority" /><node id="V0003" x="39.812400000000004" y="901.7199999999999" type="priority" /><node id="V0004" x="1041.5666666666666" y="763.3666666666667" type="priority" /><node id="V0005" x="428.85400000000004" y="239.786" type="priority" /><node id="V0006" x="843.8066666666667" y="915.7533333333333" type="priority" /><node id="V0007" x="636.7053333333333" y="803.9933333333333" type="priority" /><node id="V0008" x="726.0" y="71.19333333333334" type="priority" /><node id="V0009" x="726.94" y="583.7093333333333" type="priority" /><node id="V0010" x="266.54466666666667" y="569.6460000000001" type="priority" /><node id="V0011" x="322.498" y="571.3553333333333" type="priority" /><node id="V0012" x="826.6933333333333" y="793.0466666666667" type="priority" /><node id="V0013" x="381.65066666666667" y="487.976" type="priority" /><node id="V0014" x="673.5133333333334" y="714.1333333333333" type="priority" /><node id="V0015" x="649.4893333333333" y="599.2026666666667" type="priority" /><node id="V0016" x="412.5066666666667" y="325.7393333333333" type="priority" /><node id="V0017" x="291.6446666666667" y="596.9146666666667" type="priority" /><node id="V0018" x="765.9266666666666" y="694.4733333333334" type="priority" /><node id="V0019" x="659.2646666666666" y="816.1666666666666" type="priority" /><node id="V0020" x="326.51" y="584.6353333333334" type="priority" /><node id="V0021" x="319.8913333333333" y="562.7266666666667" type="priority" /><node id="V0022" x="365.54266666666666" y="572.67" type="priority" /><node id="V0023" x="313.0013333333334" y="571.0653333333333" type="priority" /><node id="V0024" x="814.64" y="706.6466666666668" type="priority" /><node id="V0025" x="431.51866666666666" y="427.61800000000005" type="priority" /><node id="V0026" x="692.14" y="668.6733333333334" type="priority" /><node id="V0027" x="749.2066666666667" y="803.7466666666667" type="priority" /><node id="V0028" x="502.456" y="628.6139999999999" type="priority" /><node id="V0029" x="551.7413333333334" y="439.9706666666667" type="priority" /><node id="V0030" x="400.1853333333333" y="390.5213333333333" type="priority" /><node id="V0031" x="801.8266666666666" y="796.48" type="priority" /><node id="V0032" x="306.0213333333333" y="579.5139999999999" type="priority" /><node id="V0033" x="559.0253333333333" y="578.58" type="priority" /><node id="V0034" x="361.59866666666665" y="593.4060000000001" type="priority" /><node id="V0035" x="496.1426666666667" y="349.4" type="priority" /><node id="V0036" x="689.4066666666666" y="675.3466666666667" type="priority" /><node id="V0037" x="773.0333333333333" y="800.4533333333333" type="priority" /><node id="V0038" x="587.0013333333334" y="611.7026666666667" type="priority" /><node id="V0039" x="638.3166666666667" y="581.0020000000001" type="priority" /><node id="V0040" x="474.00533333333334" y="376.194" type="priority" /><node id="V0041" x="697.4666666666667" y="677.36" type="priority" /><node id="V0042" x="627.734" y="659.9286666666667" type="priority" /></nodes>