<?xml version="1.0" encoding="UTF-8"?>

<!-- generated on 2023-06-27 18:50:04 by Eclipse SUMO netconvert Version 1.16.0
<configuration xmlns:xsi="http://www.w3.org/2001/XMLSchema-instance" xsi:noNamespaceSchemaLocation="http://sumo.dlr.de/xsd/netconvertConfiguration.xsd">

    <input>
        <node-files value="data/simulationConfigurations/optimized\optimized.nod.xml"/>
        <edge-files value="data/simulationConfigurations/optimized\optimized.edg.xml"/>
    </input>

    <output>
        <output-file value="data/simulationConfigurations/optimized\optimized.net.xml"/>
    </output>

</configuration>
-->

<net version="1.16" junctionCornerDetail="5" limitTurnSpeed="5.50" xmlns:xsi="http://www.w3.org/2001/XMLSchema-instance" xsi:noNamespaceSchemaLocation="http://sumo.dlr.de/xsd/net_file.xsd">

    <location netOffset="-49.77,-88.99" convBoundary="0.00,0.00,1252.19,1055.70" origBoundary="49.77,88.99,1301.96,1144.69" projParameter="!"/>

    <edge id=":V0002_0" function="internal">
        <lane id=":V0002_0_0" index="0" speed="5.56" length="11.49" shape="196.84,123.74 195.41,120.05 194.09,118.86 192.88,120.17 191.79,123.98"/>
        <lane id=":V0002_0_1" index="1" speed="7.96" length="25.57" shape="199.91,122.82 196.71,114.60 193.77,111.94 191.08,114.85 188.65,123.33"/>
    </edge>
    <edge id=":V0002_2" function="internal">
        <lane id=":V0002_2_0" index="0" speed="11.00" length="43.25" shape="223.59,142.94 210.83,129.00 201.27,121.20 194.93,119.52 191.79,123.98"/>
        <lane id=":V0002_2_1" index="1" speed="11.00" length="50.96" shape="226.03,140.88 211.33,125.14 200.20,116.97 192.64,116.37 188.65,123.33"/>
    </edge>
    <edge id=":V0002_4" function="internal">
        <lane id=":V0002_4_0" index="0" speed="12.29" length="47.84" shape="231.22,136.02 215.30,124.23 203.42,118.29 195.59,118.21 191.79,123.98"/>
        <lane id=":V0002_4_1" index="1" speed="13.00" length="54.67" shape="233.25,133.55 215.47,120.61 202.11,114.59 193.17,115.50 188.65,123.33"/>
    </edge>
    <edge id=":V0003_0" function="internal">
        <lane id=":V0003_0_0" index="0" speed="5.46" length="9.98" shape="20.21,1021.23 18.42,1023.94 18.30,1025.68 19.86,1026.46 23.10,1026.27"/>
        <lane id=":V0003_0_1" index="1" speed="7.48" length="20.27" shape="17.74,1019.20 14.10,1024.69 13.86,1028.23 17.04,1029.81 23.62,1029.43"/>
    </edge>
    <edge id=":V0003_2" function="internal">
        <lane id=":V0003_2_0" index="0" speed="7.61" length="20.78" shape="17.74,1019.20 14.04,1024.81 13.80,1028.49 17.02,1030.23 23.72,1030.04"/>
    </edge>
    <edge id=":V0003_3" function="internal">
        <lane id=":V0003_3_0" index="0" speed="8.38" length="20.02" shape="7.91,1023.41 8.21,1027.12 10.93,1029.36 16.07,1030.13 23.62,1029.43"/>
        <lane id=":V0003_3_1" index="1" speed="9.57" length="26.54" shape="4.78,1022.77 4.96,1028.42 8.24,1031.94 14.64,1033.33 24.13,1032.59"/>
    </edge>
    <edge id=":V0003_5" function="internal">
        <lane id=":V0003_5_0" index="0" speed="8.00" length="26.80" shape="4.78,1022.77 4.96,1028.48 8.26,1032.12 14.69,1033.70 24.23,1033.20"/>
    </edge>
    <edge id=":V0004_0" function="internal">
        <lane id=":V0004_0_0" index="0" speed="5.77" length="13.14" shape="1231.63,866.44 1236.20,865.52 1237.77,864.44 1236.33,863.19 1231.88,861.79"/>
    </edge>
    <edge id=":V0004_1" function="internal">
        <lane id=":V0004_1_0" index="0" speed="8.30" length="27.65" shape="1231.63,866.44 1240.96,865.56 1249.57,865.69 1254.29,867.46 1251.95,871.46"/>
        <lane id=":V0004_1_1" index="1" speed="7.61" length="22.95" shape="1231.63,866.44 1239.73,865.52 1247.12,865.24 1251.36,866.19 1250.00,868.93"/>
    </edge>
    <edge id=":V0006_0" function="internal">
        <lane id=":V0006_0_0" index="0" speed="8.50" length="44.04" shape="1019.10,1050.89 1012.43,1053.52 1003.30,1053.04 991.69,1049.45 977.62,1042.75"/>
    </edge>
    <edge id=":V0006_1" function="internal">
        <lane id=":V0006_1_0" index="0" speed="15.50" length="81.13" shape="1019.10,1050.89 1008.59,1053.29 994.42,1047.10 976.58,1032.34 955.07,1009.00"/>
        <lane id=":V0006_1_1" index="1" speed="15.50" length="76.46" shape="1017.14,1048.36 1007.82,1050.08 994.78,1043.75 978.01,1029.37 957.52,1006.93"/>
    </edge>
    <edge id=":V0006_3" function="internal">
        <lane id=":V0006_3_0" index="0" speed="11.00" length="76.94" shape="1017.14,1048.36 1005.37,1050.72 992.29,1042.33 978.11,1025.53 963.04,1002.64"/>
        <lane id=":V0006_3_1" index="1" speed="11.00" length="74.84" shape="1017.14,1048.36 1006.65,1049.71 994.34,1040.72 980.59,1023.70 965.77,1000.97"/>
        <lane id=":V0006_3_2" index="2" speed="11.00" length="72.88" shape="1017.14,1048.36 1007.94,1048.70 996.42,1039.12 983.09,1021.90 968.49,999.30"/>
    </edge>
    <edge id=":V0006_6" function="internal">
        <lane id=":V0006_6_0" index="0" speed="8.26" length="21.20" shape="1017.14,1048.36 1011.18,1051.99 1006.64,1052.60 1003.53,1050.17 1001.85,1044.73"/>
    </edge>
    <edge id=":V0006_7" function="internal">
        <lane id=":V0006_7_0" index="0" speed="10.52" length="41.38" shape="1009.28,1043.80 1008.96,1051.77 1001.44,1052.59 989.92,1048.76 977.62,1042.75"/>
    </edge>
    <edge id=":V0006_8" function="internal">
        <lane id=":V0006_8_0" index="0" speed="11.80" length="61.66" shape="1006.03,1044.20 1000.38,1042.51 984.92,1030.94 967.89,1016.68 957.52,1006.93"/>
        <lane id=":V0006_8_1" index="1" speed="11.50" length="58.54" shape="1002.79,1044.61 997.54,1041.16 984.09,1028.89 969.29,1014.54 959.96,1004.87"/>
    </edge>
    <edge id=":V0006_10" function="internal">
        <lane id=":V0006_10_0" index="0" speed="3.78" length="4.81" shape="1002.79,1044.61 1002.13,1042.93 1001.76,1042.39 1001.66,1042.99 1001.85,1044.73"/>
    </edge>
    <edge id=":V0006_11" function="internal">
        <lane id=":V0006_11_0" index="0" speed="13.25" length="82.99" shape="1002.79,1044.61 977.22,1046.14 962.98,1039.10 960.07,1023.48 968.49,999.30"/>
    </edge>
    <edge id=":V0007_0" function="internal">
        <lane id=":V0007_0_0" index="0" speed="10.36" length="14.95" shape="745.84,924.94 743.20,922.22 742.32,917.83 743.19,911.79 743.38,911.23"/>
        <lane id=":V0007_0_1" index="1" speed="9.29" length="13.34" shape="747.36,922.12 745.76,920.16 745.47,916.71 746.47,911.75 747.24,909.59"/>
    </edge>
    <edge id=":V0007_6" function="internal">
        <lane id=":V0007_6_0" index="0" speed="10.36" length="7.56" shape="743.38,911.23 745.81,904.08"/>
    </edge>
    <edge id=":V0007_7" function="internal">
        <lane id=":V0007_7_0" index="0" speed="9.29" length="4.57" shape="747.24,909.59 748.77,905.29"/>
    </edge>
    <edge id=":V0007_2" function="internal">
        <lane id=":V0007_2_0" index="0" speed="8.53" length="17.23" shape="730.11,902.58 736.17,905.22 740.80,906.35 744.02,905.97 745.81,904.08"/>
        <lane id=":V0007_2_1" index="1" speed="9.68" length="22.49" shape="728.67,905.43 736.16,908.56 742.01,909.58 746.21,908.49 748.77,905.29"/>
    </edge>
    <edge id=":V0007_4" function="internal">
        <lane id=":V0007_4_0" index="0" speed="12.84" length="22.11" shape="725.37,911.29 733.68,909.69 739.85,907.95 743.90,906.08 745.81,904.08"/>
        <lane id=":V0007_4_1" index="1" speed="13.71" length="25.28" shape="725.88,914.45 735.01,912.62 741.86,910.48 746.45,908.04 748.77,905.29"/>
    </edge>
    <edge id=":V0008_0" function="internal">
        <lane id=":V0008_0_0" index="0" speed="5.56" length="10.52" shape="852.98,27.48 852.64,23.88 851.63,22.24 849.95,22.56 847.60,24.83"/>
        <lane id=":V0008_0_1" index="1" speed="7.58" length="21.13" shape="856.18,27.47 855.48,20.42 853.40,17.29 849.95,18.08 845.13,22.79"/>
    </edge>
    <edge id=":V0008_2" function="internal">
        <lane id=":V0008_2_0" index="0" speed="9.02" length="28.72" shape="859.91,27.21 857.61,18.04 853.97,13.90 848.99,14.81 842.66,20.76"/>
    </edge>
    <edge id=":V0009_0" function="internal">
        <lane id=":V0009_0_0" index="0" speed="9.11" length="37.90" shape="838.89,636.49 825.37,639.73 820.97,642.20 825.72,643.91 839.59,644.86"/>
    </edge>
    <edge id=":V0009_1" function="internal">
        <lane id=":V0009_1_0" index="0" speed="3.41" length="2.63" shape="838.89,636.49 839.76,636.48 840.66,636.60 841.23,636.65 841.11,636.39"/>
    </edge>
    <edge id=":V0009_2" function="internal">
        <lane id=":V0009_2_0" index="0" speed="9.21" length="16.29" shape="838.89,636.49 845.54,635.03 850.29,633.69 853.14,632.48 854.09,631.38"/>
        <lane id=":V0009_2_1" index="1" speed="10.34" length="20.73" shape="839.16,639.70 847.10,637.82 852.76,635.81 856.16,633.66 857.29,631.38"/>
    </edge>
    <edge id=":V0009_4" function="internal">
        <lane id=":V0009_4_0" index="0" speed="11.19" length="25.65" shape="839.43,642.91 846.77,641.87 854.90,641.37 861.63,641.62 864.77,642.82"/>
    </edge>
    <edge id=":V0009_5" function="internal">
        <lane id=":V0009_5_0" index="0" speed="6.62" length="11.95" shape="847.57,647.21 847.86,644.90 846.59,643.20 843.74,642.11 839.32,641.65"/>
    </edge>
    <edge id=":V0009_6" function="internal">
        <lane id=":V0009_6_0" index="0" speed="6.50" length="15.12" shape="847.57,647.21 848.41,643.67 847.95,640.27 846.19,637.02 843.14,633.92"/>
        <lane id=":V0009_6_1" index="1" speed="6.50" length="17.19" shape="847.57,647.21 849.01,642.35 849.09,638.11 847.81,634.47 845.17,631.44"/>
    </edge>
    <edge id=":V0009_8" function="internal">
        <lane id=":V0009_8_0" index="0" speed="9.00" length="18.03" shape="847.57,647.21 849.96,642.60 852.06,639.54 853.54,636.35 854.09,631.38"/>
        <lane id=":V0009_8_1" index="1" speed="9.00" length="18.03" shape="850.54,648.43 853.06,643.47 855.22,640.16 856.73,636.72 857.29,631.38"/>
    </edge>
    <edge id=":V0009_10" function="internal">
        <lane id=":V0009_10_0" index="0" speed="5.79" length="11.39" shape="853.50,649.64 855.17,646.99 857.68,644.41 860.17,643.02 861.75,643.89"/>
    </edge>
    <edge id=":V0011_0" function="internal">
        <lane id=":V0011_0_0" index="0" speed="7.21" length="8.52" shape="348.90,638.11 346.98,629.81"/>
    </edge>
    <edge id=":V0011_1" function="internal">
        <lane id=":V0011_1_0" index="0" speed="17.00" length="11.41" shape="351.96,637.19 351.47,633.82 351.86,631.32 352.29,628.93 351.90,625.91"/>
    </edge>
    <edge id=":V0011_2" function="internal">
        <lane id=":V0011_2_0" index="0" speed="17.00" length="12.87" shape="359.21,633.38 355.51,632.77 353.09,631.60 350.68,630.42 346.98,629.81"/>
        <lane id=":V0011_2_1" index="1" speed="17.00" length="12.87" shape="359.31,630.19 355.60,629.57 353.19,628.40 350.78,627.22 347.08,626.61"/>
    </edge>
    <edge id=":V0011_4" function="internal">
        <lane id=":V0011_4_0" index="0" speed="6.87" length="7.66" shape="359.40,626.99 357.85,626.94 355.39,626.80 353.05,626.48 351.90,625.91"/>
    </edge>
    <edge id=":V0012_0" function="internal">
        <lane id=":V0012_0_0" index="0" speed="8.00" length="17.79" shape="982.57,906.50 981.58,903.00 979.97,899.47 978.27,895.20 976.97,889.50"/>
        <lane id=":V0012_0_1" index="1" speed="8.00" length="17.79" shape="982.57,906.50 980.14,889.05"/>
    </edge>
    <edge id=":V0012_2" function="internal">
        <lane id=":V0012_2_0" index="0" speed="6.50" length="9.03" shape="982.57,906.50 982.58,904.02 983.38,902.15 984.97,900.87 987.34,900.18"/>
    </edge>
    <edge id=":V0012_3" function="internal">
        <lane id=":V0012_3_0" index="0" speed="5.50" length="9.03" shape="969.02,896.25 971.40,895.57 972.99,894.29 973.79,892.41 973.80,889.94"/>
    </edge>
    <edge id=":V0012_4" function="internal">
        <lane id=":V0012_4_0" index="0" speed="10.00" length="17.96" shape="969.46,899.42 975.30,899.12 979.87,899.60 983.71,900.18 987.34,900.18"/>
    </edge>
    <edge id=":V0013_0" function="internal">
        <lane id=":V0013_0_0" index="0" speed="21.50" length="32.20" shape="431.08,518.91 428.27,523.10 424.48,529.42 419.49,537.18 413.09,545.71"/>
        <lane id=":V0013_0_1" index="1" speed="21.50" length="32.20" shape="431.08,518.91 410.63,543.67"/>
    </edge>
    <edge id=":V0013_2" function="internal">
        <lane id=":V0013_2_0" index="0" speed="5.55" length="4.33" shape="431.08,518.91 428.35,521.74 427.96,521.87"/>
    </edge>
    <edge id=":V0013_6" function="internal">
        <lane id=":V0013_6_0" index="0" speed="5.55" length="7.07" shape="427.96,521.87 426.67,522.32 426.04,520.65 426.47,516.75"/>
    </edge>
    <edge id=":V0013_3" function="internal">
        <lane id=":V0013_3_0" index="0" speed="5.55" length="11.41" shape="420.17,549.91 420.60,546.00 419.97,544.34 418.29,544.92 415.56,547.74"/>
    </edge>
    <edge id=":V0013_4" function="internal">
        <lane id=":V0013_4_0" index="0" speed="18.50" length="33.83" shape="420.17,549.91 420.79,543.94 421.40,534.87 422.18,524.88 423.33,516.15"/>
        <lane id=":V0013_4_1" index="1" speed="18.50" length="33.83" shape="420.17,549.91 426.47,516.75"/>
    </edge>
    <edge id=":V0014_0" function="internal">
        <lane id=":V0014_0_0" index="0" speed="19.50" length="13.74" shape="793.55,807.83 784.68,797.34"/>
    </edge>
    <edge id=":V0014_1" function="internal">
        <lane id=":V0014_1_0" index="0" speed="16.55" length="40.59" shape="793.55,807.83 793.01,803.97 794.65,796.24 798.49,784.66 804.52,769.21"/>
    </edge>
    <edge id=":V0014_2" function="internal">
        <lane id=":V0014_2_0" index="0" speed="14.79" length="39.63" shape="793.55,807.83 793.32,804.12 796.06,797.02 801.76,786.53 810.43,772.65"/>
    </edge>
    <edge id=":V0014_3" function="internal">
        <lane id=":V0014_3_0" index="0" speed="8.10" length="9.22" shape="785.29,807.69 785.59,805.99 785.17,804.05 784.06,801.85 782.24,799.41"/>
    </edge>
    <edge id=":V0014_4" function="internal">
        <lane id=":V0014_4_0" index="0" speed="19.00" length="42.89" shape="785.29,807.69 801.56,768.00"/>
        <lane id=":V0014_4_1" index="1" speed="19.00" length="42.89" shape="788.26,808.90 804.52,769.21"/>
    </edge>
    <edge id=":V0014_6" function="internal">
        <lane id=":V0014_6_0" index="0" speed="13.95" length="42.74" shape="788.26,808.90 792.13,800.24 797.37,789.58 802.93,779.07 807.74,770.90"/>
    </edge>
    <edge id=":V0015_0" function="internal">
        <lane id=":V0015_0_0" index="0" speed="13.00" length="17.12" shape="762.83,664.26 760.55,661.50 757.74,659.03 754.58,655.99 751.24,651.50"/>
        <lane id=":V0015_0_1" index="1" speed="13.00" length="17.12" shape="762.83,664.26 753.96,649.82"/>
    </edge>
    <edge id=":V0015_2" function="internal">
        <lane id=":V0015_2_0" index="0" speed="5.88" length="9.11" shape="762.83,664.26 761.77,661.83 761.90,659.93 763.21,658.53 765.70,657.66"/>
    </edge>
    <edge id=":V0015_3" function="internal">
        <lane id=":V0015_3_0" index="0" speed="7.50" length="9.01" shape="756.69,648.15 758.16,649.95 759.94,651.09 762.04,651.57 764.45,651.38"/>
    </edge>
    <edge id=":V0015_4" function="internal">
        <lane id=":V0015_4_0" index="0" speed="3.65" length="4.67" shape="756.69,648.15 756.64,649.59 756.17,650.35 755.27,650.43 753.96,649.82"/>
    </edge>
    <edge id=":V0015_5" function="internal">
        <lane id=":V0015_5_0" index="0" speed="6.53" length="11.55" shape="750.02,660.80 752.41,659.75 753.41,657.85 753.02,655.10 751.24,651.50"/>
    </edge>
    <edge id=":V0015_6" function="internal">
        <lane id=":V0015_6_0" index="0" speed="18.00" length="16.39" shape="750.02,660.80 753.31,659.63 756.38,657.89 760.04,656.04 765.08,654.52"/>
    </edge>
    <edge id=":V0016_0" function="internal">
        <lane id=":V0016_0_0" index="0" speed="15.50" length="8.39" shape="462.63,325.87 456.14,320.55"/>
        <lane id=":V0016_0_1" index="1" speed="15.50" length="8.39" shape="464.66,323.40 458.17,318.08"/>
        <lane id=":V0016_0_2" index="2" speed="15.50" length="8.39" shape="466.69,320.93 460.20,315.60"/>
    </edge>
    <edge id=":V0016_3" function="internal">
        <lane id=":V0016_3_0" index="0" speed="7.50" length="7.63" shape="466.69,320.93 465.62,319.69 465.00,318.10 464.81,316.15 465.07,313.84"/>
    </edge>
    <edge id=":V0017_0" function="internal">
        <lane id=":V0017_0_0" index="0" speed="6.23" length="9.05" shape="316.88,671.23 314.92,669.64 312.99,669.14 311.09,669.74 309.21,671.44"/>
    </edge>
    <edge id=":V0017_1" function="internal">
        <lane id=":V0017_1_0" index="0" speed="14.50" length="16.17" shape="319.23,669.07 316.11,664.93 314.29,661.34 312.87,658.16 310.90,655.29"/>
    </edge>
    <edge id=":V0017_2" function="internal">
        <lane id=":V0017_2_0" index="0" speed="14.50" length="18.57" shape="318.57,655.09 306.75,669.40"/>
    </edge>
    <edge id=":V0017_3" function="internal">
        <lane id=":V0017_3_0" index="0" speed="6.23" length="9.05" shape="318.57,655.09 316.70,656.79 314.80,657.39 312.87,656.89 310.90,655.29"/>
    </edge>
    <edge id=":V0018_0" function="internal">
        <lane id=":V0018_0_0" index="0" speed="6.79" length="14.37" shape="918.57,783.48 915.14,783.30 913.29,784.85 913.01,788.15 914.30,793.19"/>
    </edge>
    <edge id=":V0018_1" function="internal">
        <lane id=":V0018_1_0" index="0" speed="9.00" length="16.31" shape="918.57,783.48 915.07,783.63 911.46,785.00 907.22,786.21 901.82,785.89"/>
        <lane id=":V0018_1_1" index="1" speed="9.00" length="16.31" shape="918.57,783.48 915.12,783.13 911.68,783.41 907.68,783.54 902.60,782.79"/>
        <lane id=":V0018_1_2" index="2" speed="9.00" length="16.31" shape="918.57,783.48 903.37,779.68"/>
    </edge>
    <edge id=":V0018_4" function="internal">
        <lane id=":V0018_4_0" index="0" speed="17.00" length="19.82" shape="910.84,773.73 912.53,780.04 913.18,785.19 913.52,789.47 914.30,793.19"/>
    </edge>
    <edge id=":V0018_5" function="internal">
        <lane id=":V0018_5_0" index="0" speed="6.57" length="13.32" shape="907.82,774.80 908.84,779.12 908.31,781.89 906.23,783.11 902.60,782.79"/>
        <lane id=":V0018_5_1" index="1" speed="5.61" length="9.31" shape="907.82,774.80 908.41,777.57 907.87,779.31 906.19,780.01 903.37,779.68"/>
    </edge>
    <edge id=":V0019_0" function="internal">
        <lane id=":V0019_0_0" index="0" speed="11.00" length="32.03" shape="777.08,934.52 772.45,932.59 765.56,930.13 757.03,926.77 747.45,922.17"/>
        <lane id=":V0019_0_1" index="1" speed="11.00" length="32.03" shape="777.08,934.52 748.97,919.36"/>
    </edge>
    <edge id=":V0019_2" function="internal">
        <lane id=":V0019_2_0" index="0" speed="5.46" length="4.16" shape="777.08,934.52 774.20,932.60 773.88,931.98"/>
    </edge>
    <edge id=":V0019_6" function="internal">
        <lane id=":V0019_6_0" index="0" speed="5.46" length="6.24" shape="773.88,931.98 773.41,931.05 774.69,929.88 778.06,929.08"/>
    </edge>
    <edge id=":V0019_3" function="internal">
        <lane id=":V0019_3_0" index="0" speed="5.46" length="10.39" shape="744.94,930.43 748.31,929.63 749.59,928.46 748.80,926.91 745.93,924.99"/>
    </edge>
    <edge id=":V0019_4" function="internal">
        <lane id=":V0019_4_0" index="0" speed="12.00" length="32.99" shape="744.94,930.43 777.62,925.91"/>
        <lane id=":V0019_4_1" index="1" speed="12.00" length="32.99" shape="745.38,933.60 778.06,929.08"/>
    </edge>
    <edge id=":V0020_0" function="internal">
        <lane id=":V0020_0_0" index="0" speed="12.46" length="21.13" shape="357.67,656.07 355.32,649.88 352.45,645.17 349.05,641.92 345.14,640.14"/>
    </edge>
    <edge id=":V0020_1" function="internal">
        <lane id=":V0020_1_0" index="0" speed="13.50" length="19.75" shape="357.67,656.07 355.50,650.63 353.31,647.19 351.12,643.74 348.96,638.31"/>
        <lane id=":V0020_1_1" index="1" speed="13.50" length="19.75" shape="360.73,655.14 358.57,649.70 356.38,646.26 354.19,642.82 352.02,637.38"/>
        <lane id=":V0020_1_2" index="2" speed="13.50" length="19.75" shape="360.73,655.14 355.08,636.45"/>
    </edge>
    <edge id=":V0020_4" function="internal">
        <lane id=":V0020_4_0" index="0" speed="13.50" length="22.36" shape="364.20,651.50 357.36,648.77 352.45,645.27 348.65,642.05 345.14,640.14"/>
    </edge>
    <edge id=":V0020_5" function="internal">
        <lane id=":V0020_5_0" index="0" speed="11.47" length="17.81" shape="364.97,648.40 360.26,646.74 356.53,644.34 353.78,641.23 352.02,637.38"/>
        <lane id=":V0020_5_1" index="1" speed="10.39" length="14.50" shape="365.75,645.30 361.84,643.93 358.76,642.00 356.51,639.51 355.08,636.45"/>
    </edge>
    <edge id=":V0021_0" function="internal">
        <lane id=":V0021_0_0" index="0" speed="4.59" length="5.76" shape="351.84,625.72 351.11,624.04 350.21,623.29 349.14,623.48 347.91,624.60"/>
    </edge>
    <edge id=":V0021_1" function="internal">
        <lane id=":V0021_1_0" index="0" speed="16.50" length="15.52" shape="351.84,625.72 350.38,622.61 348.40,619.86 346.27,616.61 344.35,611.98"/>
        <lane id=":V0021_1_1" index="1" speed="16.50" length="15.52" shape="351.84,625.72 347.41,611.05"/>
    </edge>
    <edge id=":V0021_3" function="internal">
        <lane id=":V0021_3_0" index="0" speed="25.00" length="13.75" shape="358.81,616.43 355.89,619.18 353.36,620.52 350.83,621.85 347.91,624.60"/>
        <lane id=":V0021_3_1" index="1" speed="25.00" length="13.75" shape="356.35,614.39 353.42,617.14 350.89,618.48 348.37,619.81 345.44,622.56"/>
    </edge>
    <edge id=":V0021_5" function="internal">
        <lane id=":V0021_5_0" index="0" speed="5.61" length="9.32" shape="353.88,612.35 351.81,614.29 350.04,614.72 348.57,613.64 347.41,611.05"/>
    </edge>
    <edge id=":V0022_0" function="internal">
        <lane id=":V0022_0_0" index="0" speed="14.00" length="13.55" shape="411.11,628.57 407.98,629.47 405.44,631.60 402.49,633.71 398.16,634.57"/>
        <lane id=":V0022_0_1" index="1" speed="14.00" length="13.55" shape="411.11,628.57 407.92,628.97 405.28,629.99 402.34,631.00 398.26,631.38"/>
        <lane id=":V0022_0_2" index="2" speed="14.00" length="13.55" shape="411.11,628.57 398.35,628.18"/>
    </edge>
    <edge id=":V0022_3" function="internal">
        <lane id=":V0022_3_0" index="0" speed="6.19" length="9.05" shape="411.11,628.57 408.61,628.13 406.98,626.99 406.23,625.15 406.34,622.62"/>
    </edge>
    <edge id=":V0022_4" function="internal">
        <lane id=":V0022_4_0" index="0" speed="6.19" length="9.05" shape="402.93,640.52 403.05,637.99 402.29,636.15 400.66,635.01 398.16,634.57"/>
    </edge>
    <edge id=":V0022_5" function="internal">
        <lane id=":V0022_5_0" index="0" speed="13.50" length="18.23" shape="402.93,640.52 406.34,622.62"/>
    </edge>
    <edge id=":V0023_0" function="internal">
        <lane id=":V0023_0_0" index="0" speed="7.20" length="5.61" shape="346.78,629.80 343.83,634.57"/>
        <lane id=":V0023_0_1" index="1" speed="8.57" length="8.14" shape="346.88,626.61 345.68,627.41 343.98,629.27 342.35,631.27 341.36,632.53"/>
    </edge>
    <edge id=":V0023_2" function="internal">
        <lane id=":V0023_2_0" index="0" speed="14.00" length="9.88" shape="346.88,626.61 337.00,626.30"/>
    </edge>
    <edge id=":V0023_3" function="internal">
        <lane id=":V0023_3_0" index="0" speed="25.50" length="10.08" shape="347.78,624.76 341.36,632.53"/>
        <lane id=":V0023_3_1" index="1" speed="25.50" length="10.08" shape="345.31,622.72 338.89,630.49"/>
    </edge>
    <edge id=":V0023_5" function="internal">
        <lane id=":V0023_5_0" index="0" speed="9.16" length="9.39" shape="345.31,622.72 343.63,624.35 341.69,625.49 339.48,626.14 337.00,626.30"/>
    </edge>
    <edge id=":V0024_0" function="internal">
        <lane id=":V0024_0_0" index="0" speed="8.00" length="10.24" shape="961.46,801.51 960.77,798.14 959.75,795.60 958.41,793.89 956.74,793.02"/>
    </edge>
    <edge id=":V0024_1" function="internal">
        <lane id=":V0024_1_0" index="0" speed="10.00" length="10.78" shape="964.63,801.07 964.69,797.91 965.50,795.71 966.31,793.57 966.40,790.59"/>
    </edge>
    <edge id=":V0024_2" function="internal">
        <lane id=":V0024_2_0" index="0" speed="9.00" length="15.75" shape="972.02,796.84 956.74,793.02"/>
    </edge>
    <edge id=":V0024_3" function="internal">
        <lane id=":V0024_3_0" index="0" speed="7.60" length="8.97" shape="972.02,796.84 969.82,795.98 968.15,794.66 967.01,792.86 966.40,790.59"/>
    </edge>
    <edge id=":V0025_0" function="internal">
        <lane id=":V0025_0_0" index="0" speed="6.50" length="10.25" shape="490.30,458.72 487.97,456.52 485.76,455.60 483.68,455.96 481.74,457.60"/>
    </edge>
    <edge id=":V0025_1" function="internal">
        <lane id=":V0025_1_0" index="0" speed="10.50" length="14.81" shape="492.74,456.65 489.55,453.65 486.84,452.14 484.13,450.64 480.94,447.64"/>
        <lane id=":V0025_1_1" index="1" speed="10.50" length="14.81" shape="495.19,454.59 492.00,451.58 489.29,450.08 486.58,448.58 483.38,445.57"/>
        <lane id=":V0025_1_2" index="2" speed="10.50" length="14.81" shape="495.19,454.59 485.83,443.51"/>
    </edge>
    <edge id=":V0025_4" function="internal">
        <lane id=":V0025_4_0" index="0" speed="19.00" length="18.67" shape="495.88,445.50 491.62,449.88 487.78,452.80 484.46,455.09 481.74,457.60"/>
    </edge>
    <edge id=":V0025_5" function="internal">
        <lane id=":V0025_5_0" index="0" speed="7.00" length="12.08" shape="493.41,443.47 490.60,446.25 487.99,447.53 485.58,447.30 483.38,445.57"/>
        <lane id=":V0025_5_1" index="1" speed="6.15" length="9.06" shape="493.41,443.47 491.53,445.18 489.63,445.76 487.73,445.20 485.83,443.51"/>
    </edge>
    <edge id=":V0026_0" function="internal">
        <lane id=":V0026_0_0" index="0" speed="16.00" length="18.62" shape="813.60,753.08 810.85,747.64 809.34,743.08 808.25,739.20 806.76,735.82"/>
    </edge>
    <edge id=":V0026_1" function="internal">
        <lane id=":V0026_1_0" index="0" speed="11.40" length="15.45" shape="816.33,751.41 814.41,747.56 813.46,743.82 813.45,740.19 814.40,736.65"/>
        <lane id=":V0026_1_1" index="1" speed="10.88" length="14.02" shape="816.33,751.41 815.38,748.91 815.23,745.82 815.89,742.14 817.36,737.87"/>
    </edge>
    <edge id=":V0026_3" function="internal">
        <lane id=":V0026_3_0" index="0" speed="10.00" length="18.37" shape="811.13,753.08 811.79,749.72 811.28,745.72 809.61,741.09 806.76,735.82"/>
    </edge>
    <edge id=":V0026_4" function="internal">
        <lane id=":V0026_4_0" index="0" speed="9.50" length="17.05" shape="811.13,753.08 811.51,749.52 810.74,745.59 810.24,740.99 811.44,735.44"/>
        <lane id=":V0026_4_1" index="1" speed="9.50" length="17.05" shape="811.13,753.08 811.99,749.65 812.28,746.04 812.81,741.84 814.40,736.65"/>
        <lane id=":V0026_4_2" index="2" speed="9.50" length="17.05" shape="811.13,753.08 817.36,737.87"/>
    </edge>
    <edge id=":V0027_0" function="internal">
        <lane id=":V0027_0_0" index="0" speed="22.50" length="18.95" shape="883.21,923.91 880.11,918.68 878.92,913.87 878.27,909.69 876.75,906.34"/>
    </edge>
    <edge id=":V0027_1" function="internal">
        <lane id=":V0027_1_0" index="0" speed="7.39" length="17.10" shape="885.66,921.84 882.85,917.49 882.65,914.12 885.05,911.76 890.05,910.39"/>
        <lane id=":V0027_1_1" index="1" speed="5.63" length="9.29" shape="888.10,919.78 886.58,917.41 886.47,915.59 887.77,914.30 890.49,913.56"/>
    </edge>
    <edge id=":V0027_3" function="internal">
        <lane id=":V0027_3_0" index="0" speed="6.26" length="11.86" shape="870.87,913.04 875.11,912.08 877.50,910.65 878.05,908.73 876.75,906.34"/>
    </edge>
    <edge id=":V0027_4" function="internal">
        <lane id=":V0027_4_0" index="0" speed="13.00" length="19.36" shape="870.87,913.04 890.05,910.39"/>
        <lane id=":V0027_4_1" index="1" speed="13.00" length="19.36" shape="871.31,916.21 890.49,913.56"/>
    </edge>
    <edge id=":V0028_0" function="internal">
        <lane id=":V0028_0_0" index="0" speed="20.00" length="50.69" shape="580.25,705.51 531.07,693.21"/>
        <lane id=":V0028_0_1" index="1" speed="20.00" length="50.69" shape="581.02,702.40 531.84,690.11"/>
        <lane id=":V0028_0_2" index="2" speed="20.00" length="50.69" shape="581.80,699.30 532.62,687.01"/>
    </edge>
    <edge id=":V0028_3" function="internal">
        <lane id=":V0028_3_0" index="0" speed="5.64" length="4.52" shape="581.80,699.30 577.76,697.98 577.56,697.79"/>
    </edge>
    <edge id=":V0028_8" function="internal">
        <lane id=":V0028_8_0" index="0" speed="5.64" length="7.61" shape="577.56,697.79 576.43,696.73 577.82,695.54 581.91,694.42"/>
    </edge>
    <edge id=":V0028_4" function="internal">
        <lane id=":V0028_4_0" index="0" speed="5.64" length="12.14" shape="530.95,698.09 535.04,696.97 536.43,695.78 535.10,694.53 531.07,693.21"/>
        <lane id=":V0028_4_1" index="1" speed="8.18" length="27.68" shape="531.58,701.23 540.91,698.67 544.07,695.96 541.05,693.11 531.84,690.11"/>
    </edge>
    <edge id=":V0028_6" function="internal">
        <lane id=":V0028_6_0" index="0" speed="12.50" length="50.74" shape="532.20,704.37 581.29,691.28"/>
        <lane id=":V0028_6_1" index="1" speed="12.50" length="50.74" shape="532.20,704.37 581.91,694.42"/>
    </edge>
    <edge id=":V0029_0" function="internal">
        <lane id=":V0029_0_0" index="0" speed="20.00" length="55.32" shape="653.27,491.91 646.51,481.78 636.46,467.58 626.66,454.38 620.67,447.26"/>
    </edge>
    <edge id=":V0029_1" function="internal">
        <lane id=":V0029_1_0" index="0" speed="22.50" length="55.85" shape="653.27,491.91 624.05,444.31"/>
        <lane id=":V0029_1_1" index="1" speed="22.50" length="55.85" shape="656.00,490.23 626.78,442.64"/>
    </edge>
    <edge id=":V0029_3" function="internal">