<configuration><input><net-file value="sim_3.net.xml" /><route-files value="sim_3.rou.xml" /></input><time><begin value="0" /></time></configuration>