<edges><edge id="E0003" from="V0002" to="V0003" numLanes="1" speed="16.0" /><edge id="E0021" from="V0005" to="V0009" numLanes="2" speed="25.0" /><edge id="E0025" from="V0007" to="V0001" numLanes="2" speed="5.0" /><edge id="E0027" from="V0005" to="V0006" numLanes="3" speed="15.0" /><edge id="E0029" from="V0006" to="V0001" numLanes="1" speed="13.0" /><edge id="E0033" from="V0007" to="V0006" numLanes="3" speed="6.0" /><edge id="E0037" from="V0009" to="V0002" numLanes="1" speed="26.0" /><edge id="E0043" from="V0011" to="V0002" numLanes="1" speed="20.0" /><edge id="E0045" from="V0004" to="V0011" numLanes="3" speed="6.0" /><edge id="E0046" from="V0001" to="V0012" numLanes="3" speed="19.0" /><edge id="E0050" from="V0002" to="V0013" numLanes="2" speed="13.0" /><edge id="E0052" from="V0013" to="V0006" numLanes="3" speed="14.0" /><edge id="E0054" from="V0002" to="V0014" numLanes="3" speed="10.0" /><edge id="E0056" from="V0014" to="V0007" numLanes="3" speed="5.0" /><edge id="E0057" from="V0011" to="V0014" numLanes="1" speed="12.0" /><edge id="E0059" from="V0014" to="V0013" numLanes="3" speed="8.0" /><edge id="E0058" from="V0001" to="V0015" numLanes="2" speed="9.0" /><edge id="E0060" from="V0015" to="V0008" numLanes="1" speed="12.0" /><edge id="E0061" from="V0010" to="V0015" numLanes="1" speed="13.0" /><edge id="E0062" from="V0008" to="V0016" numLanes="2" speed="8.0" /><edge id="E0064" from="V0016" to="V0009" numLanes="2" speed="11.0" /><edge id="E0065" from="V0002" to="V0016" numLanes="2" speed="20.0" /><edge id="E0067" from="V0016" to="V0010" numLanes="2" speed="26.0" /><edge id="E0066" from="V0008" to="V0017" numLanes="3" speed="5.0" /><edge id="E0068" from="V0017" to="V0002" numLanes="2" speed="21.0" /><edge id="E0069" from="V0003" to="V0017" numLanes="1" speed="11.0" /><edge id="E0070" from="V0006" to="V0018" numLanes="1" speed="7.0" /><edge id="E0072" from="V0018" to="V0009" numLanes="1" speed="24.0" /><edge id="E0073" from="V0013" to="V0018" numLanes="3" speed="5.0" /><edge id="E0075" from="V0018" to="V0005" numLanes="2" speed="14.0" /><edge id="E0074" from="V0001" to="V0019" numLanes="1" speed="26.0" /><edge id="E0077" from="V0007" to="V0019" numLanes="2" speed="26.0" /><edge id="E0079" from="V0019" to="V0012" numLanes="3" speed="20.0" /><edge id="E0078" from="V0012" to="V0020" numLanes="2" speed="17.0" /><edge id="E0080" from="V0020" to="V0004" numLanes="3" speed="5.0" /><edge id="E0082" from="V0012" to="V0021" numLanes="1" speed="22.0" /><edge id="E0084" from="V0021" to="V0008" numLanes="2" speed="7.0" /><edge id="E0085" from="V0015" to="V0021" numLanes="3" speed="9.0" /><edge id="E0086" from="V0019" to="V0022" numLanes="2" speed="21.0" /><edge id="E0088" from="V0022" to="V0011" numLanes="2" speed="7.0" /><edge id="E0089" from="V0020" to="V0022" numLanes="1" speed="6.0" /><edge id="E0091" from="V0022" to="V0007" numLanes="3" speed="19.0" /><edge id="E0090" from="V0017" to="V0023" numLanes="2" speed="18.0" /><edge id="E0092" from="V0023" to="V0020" numLanes="2" speed="6.0" /><edge id="E0093" from="V0021" to="V0023" numLanes="3" speed="24.0" /><edge id="E0095" from="V0023" to="V0004" numLanes="3" speed="19.0" /></edges>