<nodes><node id="V0001" x="126.79400000000001" y="787.2333333333333" type="priority" /><node id="V0002" x="814.1533333333333" y="494.774" type="priority" /><node id="V0003" x="610.9233333333334" y="356.94466666666665" type="priority" /><node id="V0004" x="492.528" y="630.7486666666666" type="priority" /><node id="V0005" x="990.6533333333333" y="703.0466666666667" type="priority" /><node id="V0006" x="781.5" y="1052.6333333333334" type="priority" /><node id="V0007" x="406.42533333333336" y="796.4733333333334" type="priority" /><node id="V0008" x="365.89666666666665" y="288.2573333333333" type="priority" /><node id="V0009" x="960.5733333333334" y="182.72066666666666" type="priority" /><node id="V0010" x="185.68266666666665" y="51.27106666666667" type="priority" /><node id="V0011" x="494.05333333333334" y="630.9699999999999" type="priority" /><node id="V0012" x="396.486" y="671.84" type="priority" /><node id="V0013" x="803.5533333333333" y="675.8933333333333" type="priority" /><node id="V0014" x="607.7853333333334" y="647.4773333333334" type="priority" /><node id="V0015" x="339.89933333333335" y="342.50933333333336" type="priority" /><node id="V0016" x="490.2366666666667" y="266.1906666666667" type="priority" /><node id="V0017" x="593.9886666666666" y="393.342" type="priority" /><node id="V0018" x="857.4466666666667" y="683.7133333333334" type="priority" /><node id="V0019" x="396.5353333333333" y="672.4599999999999" type="priority" /><node id="V0020" x="481.2966666666667" y="635.554" type="priority" /><node id="V0021" x="375.59933333333333" y="409.9286666666667" type="priority" /><node id="V0022" x="480.8073333333333" y="636.606" type="priority" /><node id="V0023" x="487.74" y="621.7053333333333" type="priority" /></nodes>