<?xml version="1.0" encoding="UTF-8"?>

<!-- generated on 2023-06-26 02:05:28 by Eclipse SUMO netconvert Version 1.16.0
<configuration xmlns:xsi="http://www.w3.org/2001/XMLSchema-instance" xsi:noNamespaceSchemaLocation="http://sumo.dlr.de/xsd/netconvertConfiguration.xsd">

    <input>
        <node-files value="data/simulationConfigurations/tests/20\20.nod.xml"/>
        <edge-files value="data/simulationConfigurations/tests/20\20.edg.xml"/>
    </input>

    <output>
        <output-file value="data/simulationConfigurations/tests/20\20.net.xml"/>
    </output>

</configuration>
-->

<net version="1.16" junctionCornerDetail="5" limitTurnSpeed="5.50" xmlns:xsi="http://www.w3.org/2001/XMLSchema-instance" xsi:noNamespaceSchemaLocation="http://sumo.dlr.de/xsd/net_file.xsd">

    <location netOffset="-126.79,-51.27" convBoundary="0.00,0.00,863.86,1001.36" origBoundary="126.79,51.27,990.65,1052.63" projParameter="!"/>

    <edge id=":V0001_0" function="internal">
        <lane id=":V0001_0_0" index="0" speed="10.55" length="26.64" shape="17.99,744.98 11.32,741.51 4.54,736.76 -0.40,731.91 -1.59,728.17"/>
    </edge>
    <edge id=":V0001_1" function="internal">
        <lane id=":V0001_1_0" index="0" speed="8.75" length="27.45" shape="17.99,744.98 11.22,741.23 4.29,735.75 0.11,730.29 1.59,726.58"/>
    </edge>
    <edge id=":V0001_2" function="internal">
        <lane id=":V0001_2_0" index="0" speed="7.55" length="20.04" shape="17.99,744.98 12.80,742.29 7.33,738.51 3.71,734.85 4.10,732.48"/>
    </edge>
    <edge id=":V0001_3" function="internal">
        <lane id=":V0001_3_0" index="0" speed="7.00" length="23.09" shape="18.75,741.38 12.69,740.22 6.39,737.46 1.92,733.70 1.30,729.55"/>
    </edge>
    <edge id=":V0001_4" function="internal">
        <lane id=":V0001_4_0" index="0" speed="7.11" length="20.52" shape="18.86,738.19 13.01,737.08 6.48,734.68 2.14,731.86 2.84,729.52"/>
        <lane id=":V0001_4_1" index="1" speed="6.65" length="17.67" shape="18.86,738.19 13.64,737.51 7.68,736.04 3.61,734.21 4.10,732.47"/>
    </edge>
    <edge id=":V0001_6" function="internal">
        <lane id=":V0001_6_0" index="0" speed="6.64" length="17.66" shape="18.86,738.19 13.64,737.51 7.68,736.04 3.62,734.22 4.10,732.48"/>
    </edge>
    <edge id=":V0002_0" function="internal">
        <lane id=":V0002_0_0" index="0" speed="19.50" length="28.52" shape="694.43,432.20 693.11,437.09 692.23,444.18 691.64,452.30 691.19,460.26"/>
        <lane id=":V0002_0_1" index="1" speed="19.50" length="28.52" shape="694.43,432.20 692.61,437.06 690.63,444.09 688.95,452.14 687.99,460.07"/>
    </edge>
    <edge id=":V0002_2" function="internal">
        <lane id=":V0002_2_0" index="0" speed="18.00" length="28.26" shape="694.43,432.20 693.23,436.84 691.82,443.25 688.73,450.35 682.49,457.06"/>
    </edge>
    <edge id=":V0002_3" function="internal">
        <lane id=":V0002_3_0" index="0" speed="9.07" length="17.36" shape="694.43,432.20 691.02,437.77 687.19,440.81 682.95,441.32 681.42,440.65"/>
    </edge>
    <edge id=":V0002_4" function="internal">
        <lane id=":V0002_4_0" index="0" speed="9.30" length="17.46" shape="694.43,432.20 690.91,435.99 685.54,438.10 679.67,438.33 679.07,438.11"/>
    </edge>
    <edge id=":V0002_14" function="internal">
        <lane id=":V0002_14_0" index="0" speed="9.07" length="3.41" shape="681.42,440.65 678.29,439.29"/>
    </edge>
    <edge id=":V0002_15" function="internal">
        <lane id=":V0002_15_0" index="0" speed="9.30" length="4.69" shape="679.07,438.11 674.66,436.50"/>
    </edge>
    <edge id=":V0002_5" function="internal">
        <lane id=":V0002_5_0" index="0" speed="7.71" length="27.21" shape="676.36,433.15 668.16,429.70 665.75,429.57 669.13,432.77 678.29,439.29"/>
    </edge>
    <edge id=":V0002_6" function="internal">
        <lane id=":V0002_6_0" index="0" speed="9.15" length="38.90" shape="676.36,433.15 663.21,427.57 658.29,426.75 661.62,430.68 673.19,439.38"/>
    </edge>
    <edge id=":V0002_7" function="internal">
        <lane id=":V0002_7_0" index="0" speed="13.28" length="29.27" shape="674.91,436.01 681.02,439.95 685.24,445.27 687.56,451.98 687.99,460.07"/>
    </edge>
    <edge id=":V0002_8" function="internal">
        <lane id=":V0002_8_0" index="0" speed="8.38" length="21.69" shape="674.91,436.01 678.99,439.50 681.87,444.83 682.69,450.38 680.56,454.51"/>
        <lane id=":V0002_8_1" index="1" speed="7.75" length="18.35" shape="674.91,436.01 678.20,439.00 680.28,443.61 680.62,448.40 678.66,451.93"/>
    </edge>
    <edge id=":V0002_10" function="internal">
        <lane id=":V0002_10_0" index="0" speed="6.13" length="11.36" shape="675.02,447.02 678.60,445.09 680.34,443.17 680.24,441.23 678.29,439.29"/>
    </edge>
    <edge id=":V0002_11" function="internal">
        <lane id=":V0002_11_0" index="0" speed="6.87" length="14.48" shape="675.02,447.02 678.40,444.91 679.46,442.46 678.22,439.65 674.66,436.50"/>
    </edge>
    <edge id=":V0002_12" function="internal">
        <lane id=":V0002_12_0" index="0" speed="8.91" length="13.10" shape="675.02,447.02 681.11,445.58 685.31,447.28 686.30,449.37"/>
    </edge>
    <edge id=":V0002_13" function="internal">
        <lane id=":V0002_13_0" index="0" speed="4.79" length="4.47" shape="675.02,447.02 677.77,446.88 679.29,447.66"/>
    </edge>
    <edge id=":V0002_16" function="internal">
        <lane id=":V0002_16_0" index="0" speed="8.91" length="11.01" shape="686.30,449.37 687.60,452.11 687.99,460.07"/>
    </edge>
    <edge id=":V0002_17" function="internal">
        <lane id=":V0002_17_0" index="0" speed="4.79" length="4.47" shape="679.29,447.66 679.59,449.34 678.66,451.93"/>
    </edge>
    <edge id=":V0003_0" function="internal">
        <lane id=":V0003_0_0" index="0" speed="3.90" length="2.89" shape="486.34,309.11 485.61,308.75 484.98,308.74 484.44,309.08 483.99,309.76"/>
    </edge>
    <edge id=":V0004_0" function="internal">
        <lane id=":V0004_0_0" index="0" speed="4.05" length="1.48" shape="370.07,570.57 370.22,572.04"/>
        <lane id=":V0004_0_1" index="1" speed="6.14" length="4.11" shape="367.24,572.07 367.70,572.91 368.31,573.92 369.02,574.78 369.76,575.21"/>
        <lane id=":V0004_0_2" index="2" speed="7.86" length="7.08" shape="364.42,573.57 365.60,575.53 366.81,576.99 368.05,577.94 369.30,578.38"/>
    </edge>
    <edge id=":V0004_3" function="internal">
        <lane id=":V0004_3_0" index="0" speed="5.50" length="3.30" shape="365.98,570.67 367.19,570.47 368.04,570.91 368.92,571.57 370.22,572.04"/>
        <lane id=":V0004_3_1" index="1" speed="5.50" length="3.30" shape="367.24,573.61 368.00,573.59 368.46,574.11 368.94,574.79 369.76,575.21"/>
        <lane id=":V0004_3_2" index="2" speed="5.50" length="3.30" shape="368.49,576.56 369.30,578.38"/>
    </edge>
    <edge id=":V0005_0" function="internal">
        <lane id=":V0005_0_0" index="0" speed="6.11" length="9.06" shape="852.83,645.32 855.39,645.33 857.17,644.48 858.17,642.78 858.38,640.23"/>
        <lane id=":V0005_0_1" index="1" speed="7.69" length="15.02" shape="852.37,648.49 856.61,648.50 859.56,647.09 861.22,644.27 861.58,640.05"/>
    </edge>
    <edge id=":V0005_2" function="internal">
        <lane id=":V0005_2_0" index="0" speed="8.84" length="22.86" shape="852.37,648.49 860.00,649.93 866.01,652.06 869.27,655.11 868.67,659.32"/>
        <lane id=":V0005_2_1" index="1" speed="8.13" length="19.13" shape="852.37,648.49 859.79,650.02 864.52,652.06 866.57,654.61 865.92,657.67"/>
        <lane id=":V0005_2_2" index="2" speed="7.37" length="15.47" shape="852.37,648.49 858.33,649.73 862.12,651.40 863.74,653.50 863.18,656.03"/>
    </edge>
    <edge id=":V0006_0" function="internal">
        <lane id=":V0006_0_0" index="0" speed="14.00" length="101.81" shape="710.67,923.41 688.20,959.09 670.11,983.74 656.38,997.37 647.01,999.97"/>
    </edge>
    <edge id=":V0006_1" function="internal">
        <lane id=":V0006_1_0" index="0" speed="10.63" length="50.27" shape="704.44,921.35 692.21,930.88 682.69,932.26 675.88,925.46 671.78,910.50"/>
    </edge>
    <edge id=":V0006_2" function="internal">
        <lane id=":V0006_2_0" index="0" speed="7.57" length="26.29" shape="668.08,909.83 667.74,919.64 668.24,923.02 669.59,919.98 671.78,910.50"/>
    </edge>
    <edge id=":V0006_3" function="internal">
        <lane id=":V0006_3_0" index="0" speed="13.50" length="94.56" shape="664.88,909.64 662.27,945.88 658.67,975.51 653.70,994.79 647.01,999.97"/>
    </edge>
    <edge id=":V0006_4" function="internal">
        <lane id=":V0006_4_0" index="0" speed="6.50" length="81.81" shape="651.43,989.43 654.05,985.42 658.31,970.93 664.22,945.96 671.78,910.50"/>
    </edge>
    <edge id=":V0006_5" function="internal">
        <lane id=":V0006_5_0" index="0" speed="4.37" length="7.14" shape="648.90,995.46 650.12,997.30 650.21,998.66 649.17,999.55 647.01,999.97"/>
    </edge>
    <edge id=":V0007_0" function="internal">
        <lane id=":V0007_0_0" index="0" speed="5.50" length="14.43" shape="303.75,737.31 299.56,740.87 297.30,743.91 296.98,746.45 298.60,748.47"/>
    </edge>
    <edge id=":V0007_1" function="internal">
        <lane id=":V0007_1_0" index="0" speed="5.00" length="36.43" shape="303.75,737.31 294.65,743.05 285.62,746.95 276.98,749.12 269.04,749.65"/>
        <lane id=":V0007_1_1" index="1" speed="5.00" length="36.43" shape="301.85,734.73 293.06,740.38 284.72,744.06 276.77,746.02 269.14,746.46"/>
    </edge>
    <edge id=":V0007_3" function="internal">
        <lane id=":V0007_3_0" index="0" speed="10.12" length="33.29" shape="301.85,734.73 292.41,741.17 283.79,745.45 277.36,745.91 274.47,740.88"/>
        <lane id=":V0007_3_1" index="1" speed="9.06" length="26.37" shape="299.95,732.16 292.04,737.69 285.00,741.71 279.86,743.07 277.66,740.62"/>
    </edge>
    <edge id=":V0007_5" function="internal">
        <lane id=":V0007_5_0" index="0" speed="10.96" length="24.10" shape="296.02,728.95 293.20,736.49 292.39,742.70 293.59,747.57 296.79,751.11"/>
        <lane id=":V0007_5_1" index="1" speed="11.51" length="26.67" shape="296.02,728.95 292.57,737.76 291.26,744.83 292.06,750.16 294.99,753.75"/>
    </edge>
    <edge id=":V0007_7" function="internal">
        <lane id=":V0007_7_0" index="0" speed="12.00" length="36.11" shape="296.02,728.95 290.62,738.22 284.32,744.76 277.13,748.57 269.04,749.65"/>
        <lane id=":V0007_7_1" index="1" speed="12.00" length="32.36" shape="293.11,727.60 288.24,736.04 282.62,741.99 276.25,745.46 269.14,746.46"/>
    </edge>
    <edge id=":V0007_9" function="internal">
        <lane id=":V0007_9_0" index="0" speed="8.67" length="30.43" shape="293.11,727.60 288.08,736.32 282.16,743.31 277.06,745.77 274.47,740.88"/>
        <lane id=":V0007_9_1" index="1" speed="7.75" length="23.92" shape="290.21,726.25 286.47,733.81 282.53,740.40 279.30,743.51 277.66,740.62"/>
    </edge>
    <edge id=":V0008_0" function="internal">
        <lane id=":V0008_0_0" index="0" speed="7.50" length="36.97" shape="235.51,252.33 236.39,243.61 240.55,236.75 248.01,231.75 258.76,228.62"/>
        <lane id=":V0008_0_1" index="1" speed="7.50" length="32.18" shape="238.70,252.08 239.50,244.65 243.20,238.80 249.81,234.50 259.32,231.77"/>
    </edge>
    <edge id=":V0008_2" function="internal">
        <lane id=":V0008_2_0" index="0" speed="6.00" length="28.21" shape="238.70,252.08 239.62,244.31 243.44,239.56 249.54,238.06 257.29,240.08"/>
        <lane id=":V0008_2_1" index="1" speed="6.00" length="24.85" shape="238.70,252.08 239.65,245.46 243.31,241.78 248.98,240.98 255.95,242.99"/>
    </edge>
    <edge id=":V0008_4" function="internal">
        <lane id=":V0008_4_0" index="0" speed="10.00" length="37.79" shape="230.43,251.39 235.68,242.70 242.16,236.00 249.85,231.31 258.76,228.62"/>
    </edge>
    <edge id=":V0008_5" function="internal">
        <lane id=":V0008_5_0" index="0" speed="8.50" length="35.74" shape="230.43,251.39 236.19,242.14 242.82,236.69 250.30,235.04 258.63,237.17"/>
    </edge>
    <edge id=":V0009_0" function="internal">
        <lane id=":V0009_0_0" index="0" speed="6.68" length="17.45" shape="830.60,159.67 829.79,153.66 828.26,151.39 826.02,152.86 823.06,158.05"/>
    </edge>
    <edge id=":V0009_1" function="internal">
        <lane id=":V0009_1_0" index="0" speed="10.11" length="34.22" shape="829.00,127.42 832.34,129.43 831.67,136.34 828.18,146.46 823.06,158.05"/>
    </edge>
    <edge id=":V0009_2" function="internal">
        <lane id=":V0009_2_0" index="0" speed="6.06" length="15.56" shape="826.44,159.17 827.37,153.55 827.12,151.49 825.68,152.99 823.06,158.05"/>
    </edge>
    <edge id=":V0010_0" function="internal">
        <lane id=":V0010_0_0" index="0" speed="6.94" length="19.17" shape="77.33,14.97 71.77,11.66 68.99,11.54 68.98,14.61 71.75,20.87"/>
    </edge>
    <edge id=":V0011_0" function="internal">
        <lane id=":V0011_0_0" index="0" speed="9.60" length="4.54" shape="370.42,572.07 373.68,575.23"/>
    </edge>
    <edge id=":V0011_1" function="internal">
        <lane id=":V0011_1_0" index="0" speed="9.00" length="4.73" shape="369.50,578.41 374.18,579.09"/>
    </edge>
    <edge id=":V0011_2" function="internal">
        <lane id=":V0011_2_0" index="0" speed="13.50" length="9.85" shape="381.00,568.64 373.68,575.23"/>
    </edge>
    <edge id=":V0011_3" function="internal">
        <lane id=":V0011_3_0" index="0" speed="9.50" length="11.02" shape="382.25,571.58 374.18,579.09"/>
    </edge>
    <edge id=":V0012_0" function="internal">
        <lane id=":V0012_0_0" index="0" speed="21.00" length="12.63" shape="261.59,619.66 262.31,616.10 264.34,613.82 266.38,611.75 267.15,608.81"/>
    </edge>
    <edge id=":V0012_1" function="internal">
        <lane id=":V0012_1_0" index="0" speed="7.59" length="9.52" shape="264.78,619.41 265.21,618.37 266.62,617.15 269.03,615.76 272.43,614.18"/>
        <lane id=":V0012_1_1" index="1" speed="6.19" length="6.06" shape="267.97,619.15 273.69,617.12"/>
    </edge>
    <edge id=":V0012_3" function="internal">
        <lane id=":V0012_3_0" index="0" speed="9.78" length="16.34" shape="254.59,618.33 260.20,615.67 264.17,613.19 266.48,610.91 267.15,608.81"/>
    </edge>
    <edge id=":V0012_4" function="internal">
        <lane id=":V0012_4_0" index="0" speed="18.00" length="18.03" shape="255.85,621.27 272.43,614.18"/>
        <lane id=":V0012_4_1" index="1" speed="18.00" length="18.03" shape="257.11,624.21 273.69,617.12"/>
    </edge>
    <edge id=":V0013_0" function="internal">
        <lane id=":V0013_0_0" index="0" speed="7.75" length="12.38" shape="682.33,611.62 682.75,614.19 684.35,616.21 687.12,617.68 691.08,618.62"/>
    </edge>
    <edge id=":V0013_1" function="internal">
        <lane id=":V0013_1_0" index="0" speed="13.50" length="18.05" shape="682.33,611.62 682.52,616.96 683.41,620.60 684.29,624.23 684.48,629.58"/>
        <lane id=":V0013_1_1" index="1" speed="13.50" length="18.05" shape="679.13,611.43 679.32,616.78 680.21,620.41 681.10,624.05 681.29,629.39"/>
        <lane id=":V0013_1_2" index="2" speed="13.50" length="18.05" shape="679.13,611.43 678.09,629.20"/>
    </edge>
    <edge id=":V0013_4" function="internal">
        <lane id=":V0013_4_0" index="0" speed="6.50" length="18.42" shape="673.46,616.06 691.08,618.62"/>
        <lane id=":V0013_4_1" index="1" speed="6.50" length="18.42" shape="673.46,616.06 678.66,617.32 682.04,618.92 685.42,620.52 690.62,621.78"/>
        <lane id=":V0013_4_2" index="2" speed="6.50" length="18.42" shape="673.46,616.06 678.70,617.83 681.81,620.50 684.92,623.18 690.16,624.95"/>
    </edge>
    <edge id=":V0013_7" function="internal">
        <lane id=":V0013_7_0" index="0" speed="8.39" length="14.69" shape="673.00,619.23 676.82,620.34 679.48,622.41 680.97,625.42 681.29,629.39"/>
        <lane id=":V0013_7_1" index="1" speed="6.98" length="9.84" shape="672.54,622.39 675.10,623.14 676.88,624.52 677.88,626.55 678.09,629.20"/>
    </edge>
    <edge id=":V0014_0" function="internal">
        <lane id=":V0014_0_0" index="0" speed="5.47" length="9.75" shape="507.71,586.39 505.42,588.51 504.90,590.19 506.15,591.42 509.17,592.21"/>
        <lane id=":V0014_0_1" index="1" speed="7.43" length="19.36" shape="505.80,583.82 501.27,588.03 500.24,591.36 502.72,593.81 508.71,595.38"/>
    </edge>
    <edge id=":V0014_2" function="internal">
        <lane id=":V0014_2_0" index="0" speed="7.50" length="31.66" shape="503.90,581.24 497.17,587.47 493.22,593.13 489.26,598.79 482.53,605.02"/>
        <lane id=":V0014_2_1" index="1" speed="7.50" length="31.66" shape="503.90,581.24 496.87,587.07 492.27,591.84 487.66,596.62 480.63,602.44"/>
        <lane id=":V0014_2_2" index="2" speed="7.50" length="31.66" shape="503.90,581.24 478.73,599.87"/>
    </edge>
    <edge id=":V0014_5" function="internal">
        <lane id=":V0014_5_0" index="0" speed="10.00" length="31.41" shape="477.26,594.05 482.18,594.26 489.28,594.18 498.23,594.36 508.71,595.38"/>
        <lane id=":V0014_5_1" index="1" speed="10.00" length="31.41" shape="477.26,594.05 508.25,598.55"/>
    </edge>
    <edge id=":V0014_7" function="internal">
        <lane id=":V0014_7_0" index="0" speed="6.53" length="4.38" shape="477.26,594.05 481.52,595.10"/>
        <lane id=":V0014_7_1" index="1" speed="5.47" length="4.17" shape="477.26,594.05 480.28,594.84 481.03,595.57"/>
    </edge>
    <edge id=":V0014_9" function="internal">
        <lane id=":V0014_9_0" index="0" speed="6.53" length="10.20" shape="481.52,595.10 482.09,595.24 484.26,597.04 483.77,599.44 480.63,602.44"/>
    </edge>
    <edge id=":V0014_10" function="internal">
        <lane id=":V0014_10_0" index="0" speed="5.47" length="5.59" shape="481.03,595.57 481.53,596.07 481.01,597.75 478.73,599.87"/>
    </edge>
    <edge id=":V0015_0" function="internal">
        <lane id=":V0015_0_0" index="0" speed="6.70" length="14.33" shape="208.92,279.92 211.07,282.60 213.39,282.86 215.88,280.72 218.55,276.17"/>
    </edge>
    <edge id=":V0015_1" function="internal">
        <lane id=":V0015_1_0" index="0" speed="11.00" length="16.59" shape="208.92,279.92 211.39,282.45 214.85,284.28 218.63,286.71 222.05,291.03"/>
        <lane id=":V0015_1_1" index="1" speed="11.00" length="16.59" shape="208.92,279.92 210.98,282.74 213.52,285.18 216.33,288.14 219.22,292.53"/>
        <lane id=":V0015_1_2" index="2" speed="11.00" length="16.59" shape="208.92,279.92 216.39,294.02"/>
    </edge>
    <edge id=":V0015_4" function="internal">
        <lane id=":V0015_4_0" index="0" speed="10.50" length="20.25" shape="207.05,292.77 210.36,287.01 213.61,282.78 216.45,279.40 218.55,276.17"/>
    </edge>
    <edge id=":V0015_5" function="internal">
        <lane id=":V0015_5_0" index="0" speed="6.54" length="13.59" shape="209.93,294.15 212.32,290.28 214.67,288.72 216.96,289.47 219.22,292.53"/>
        <lane id=":V0015_5_1" index="1" speed="5.56" length="9.39" shape="209.93,294.15 211.50,291.72 213.10,290.89 214.73,291.66 216.39,294.02"/>
    </edge>
    <edge id=":V0016_0" function="internal">
        <lane id=":V0016_0_0" index="0" speed="23.00" length="23.35" shape="363.94,221.15 344.87,207.69"/>
        <lane id=":V0016_0_1" index="1" speed="23.00" length="23.35" shape="365.79,218.53 346.71,205.07"/>
    </edge>
    <edge id=":V0016_2" function="internal">
        <lane id=":V0016_2_0" index="0" speed="5.48" length="9.72" shape="365.79,218.53 363.47,216.47 362.92,214.80 364.13,213.53 367.10,212.65"/>
    </edge>
    <edge id=":V0016_3" function="internal">
        <lane id=":V0016_3_0" index="0" speed="5.48" length="9.72" shape="343.55,213.57 346.53,212.69 347.74,211.42 347.19,209.75 344.87,207.69"/>
        <lane id=":V0016_3_1" index="1" speed="7.42" length="19.25" shape="344.11,216.72 350.00,214.98 352.40,212.46 351.30,209.15 346.71,205.07"/>
    </edge>
    <edge id=":V0016_5" function="internal">
        <lane id=":V0016_5_0" index="0" speed="9.50" length="23.48" shape="344.11,216.72 350.39,215.10 355.33,213.11 360.27,211.12 366.54,209.49"/>
        <lane id=":V0016_5_1" index="1" speed="9.50" length="23.48" shape="344.11,216.72 367.10,212.65"/>
    </edge>
    <edge id=":V0017_0" function="internal">
        <lane id=":V0017_0_0" index="0" speed="7.98" length="14.16" shape="474.38,330.42 473.26,334.13 473.59,337.31 475.39,339.96 478.65,342.06"/>
    </edge>
    <edge id=":V0017_1" function="internal">
        <lane id=":V0017_1_0" index="0" speed="14.50" length="17.77" shape="474.38,330.42 473.32,333.89 472.74,337.73 471.86,342.23 469.86,347.72"/>
        <lane id=":V0017_1_1" index="1" speed="14.50" length="17.77" shape="474.38,330.42 466.96,346.37"/>
    </edge>
    <edge id=":V0017_3" function="internal">
        <lane id=":V0017_3_0" index="0" speed="13.00" length="14.86" shape="466.91,333.13 470.63,335.39 472.78,337.60 474.93,339.80 478.65,342.06"/>
        <lane id=":V0017_3_1" index="1" speed="13.00" length="14.86" shape="465.57,336.04 469.29,338.30 471.44,340.50 473.59,342.71 477.31,344.97"/>
    </edge>
    <edge id=":V0017_5" function="internal">
        <lane id=":V0017_5_0" index="0" speed="6.50" length="9.03" shape="464.23,338.94 466.31,340.29 467.46,341.97 467.67,344.00 466.96,346.37"/>
    </edge>
    <edge id=":V0018_0" function="internal">
        <lane id=":V0018_0_0" index="0" speed="6.67" length="9.12" shape="724.90,623.52 727.49,623.57 729.50,622.86 730.92,621.40 731.75,619.19"/>
    </edge>
    <edge id=":V0018_1" function="internal">
        <lane id=":V0018_1_0" index="0" speed="9.50" length="11.12" shape="724.44,626.69 735.45,628.29"/>
        <lane id=":V0018_1_1" index="1" speed="9.50" length="11.12" shape="723.98,629.86 734.99,631.45"/>
    </edge>
    <edge id=":V0018_3" function="internal">
        <lane id=":V0018_3_0" index="0" speed="15.50" length="17.16" shape="728.29,636.00 731.75,619.19"/>
    </edge>
    <edge id=":V0018_4" function="internal">
        <lane id=":V0018_4_0" index="0" speed="6.67" length="9.12" shape="728.29,636.00 729.12,633.71 730.51,632.18 732.47,631.43 734.99,631.45"/>
    </edge>
    <edge id=":V0019_0" function="internal">
        <lane id=":V0019_0_0" index="0" speed="23.00" length="6.99" shape="265.36,626.57 264.80,619.60"/>
        <lane id=":V0019_0_1" index="1" speed="23.00" length="6.99" shape="268.55,626.32 267.99,619.35"/>
    </edge>
    <edge id=":V0019_2" function="internal">
        <lane id=":V0019_2_0" index="0" speed="8.03" length="10.78" shape="268.55,626.32 268.69,623.48 269.60,621.10 271.28,619.19 273.73,617.75"/>
    </edge>
    <edge id=":V0019_3" function="internal">
        <lane id=":V0019_3_0" index="0" speed="6.21" length="6.12" shape="258.14,624.39 259.74,623.51 260.86,622.47 261.48,621.25 261.61,619.86"/>
    </edge>
    <edge id=":V0019_4" function="internal">
        <lane id=":V0019_4_0" index="0" speed="23.50" length="17.13" shape="258.14,624.39 261.20,622.54 264.06,620.13 267.54,617.45 272.48,614.81"/>
        <lane id=":V0019_4_1" index="1" speed="23.50" length="17.13" shape="258.14,624.39 273.73,617.75"/>
    </edge>
    <edge id=":V0020_0" function="internal">
        <lane id=":V0020_0_0" index="0" speed="5.50" length="0.39" shape="365.92,571.12 365.79,570.75"/>
    </edge>
    <edge id=":V0020_1" function="internal">
        <lane id=":V0020_1_0" index="0" speed="6.00" length="13.66" shape="363.02,569.77 357.26,582.15"/>
    </edge>
    <edge id=":V0020_2" function="internal">
        <lane id=":V0020_2_0" index="0" speed="11.00" length="19.70" shape="348.94,581.44 367.05,573.69"/>
        <lane id=":V0020_2_1" index="1" speed="11.00" length="19.70" shape="350.20,584.39 368.31,576.64"/>
    </edge>
    <edge id=":V0020_4" function="internal">
        <lane id=":V0020_4_0" index="0" speed="4.88" length="6.49" shape="350.20,584.39 353.46,583.04 355.72,582.22 356.26,582.09"/>
    </edge>
    <edge id=":V0020_5" function="internal">
        <lane id=":V0020_5_0" index="0" speed="4.88" length="1.10" shape="356.26,582.09 356.99,581.92 357.26,582.15"/>
    </edge>
    <edge id=":V0021_0" function="internal">
        <lane id=":V0021_0_0" index="0" speed="14.50" length="47.06" shape="247.53,362.77 243.79,315.86"/>
    </edge>
    <edge id=":V0021_1" function="internal">
        <lane id=":V0021_1_0" index="0" speed="7.16" length="4.97" shape="247.53,362.77 247.44,357.80"/>
        <lane id=":V0021_1_1" index="1" speed="5.71" length="4.67" shape="247.53,362.77 247.46,358.30 247.54,358.12"/>
    </edge>
    <edge id=":V0021_7" function="internal">
        <lane id=":V0021_7_0" index="0" speed="7.16" length="16.07" shape="247.44,357.80 247.40,355.19 248.59,352.19 251.09,353.77 254.92,359.95"/>
    </edge>
    <edge id=":V0021_8" function="internal">
        <lane id=":V0021_8_0" index="0" speed="5.71" length="8.01" shape="247.54,358.12 248.20,356.59 249.74,357.63 252.09,361.44"/>
    </edge>
    <edge id=":V0021_3" function="internal">
        <lane id=":V0021_3_0" index="0" speed="5.71" length="12.68" shape="236.03,317.45 238.38,321.25 239.92,322.30 240.66,320.59 240.60,316.12"/>
    </edge>
    <edge id=":V0021_4" function="internal">
        <lane id=":V0021_4_0" index="0" speed="16.50" length="46.40" shape="236.03,317.45 257.75,358.45"/>
        <lane id=":V0021_4_1" index="1" speed="16.50" length="46.40" shape="233.21,318.94 254.92,359.95"/>
        <lane id=":V0021_4_2" index="2" speed="16.50" length="46.40" shape="230.38,320.44 252.09,361.44"/>
    </edge>
    <edge id=":V0022_0" function="internal">
        <lane id=":V0022_0_0" index="0" speed="6.47" length="14.63" shape="357.18,582.33 369.02,573.73"/>
    </edge>
    <edge id=":V0022_1" function="internal">
        <lane id=":V0022_1_0" index="0" speed="12.50" length="9.27" shape="357.18,582.33 356.97,585.15 358.40,587.28 359.82,589.44 359.58,592.34"/>
        <lane id=":V0022_1_1" index="1" speed="12.50" length="9.27" shape="357.18,582.33 356.58,584.79 356.93,586.66 357.27,588.53 356.68,590.99"/>
        <lane id=":V0022_1_2" index="2" speed="12.50" length="9.27" shape="357.18,582.33 353.78,589.64"/>
    </edge>
    <edge id=":V0022_4" function="internal">
        <lane id=":V0022_4_0" index="0" speed="14.00" length="22.35" shape="348.45,582.48 369.02,573.73"/>
        <lane id=":V0022_4_1" index="1" speed="14.00" length="22.35" shape="349.71,585.43 370.27,576.68"/>
    </edge>
    <edge id=":V0022_6" function="internal">
        <lane id=":V0022_6_0" index="0" speed="6.54" length="4.42" shape="349.71,585.43 353.92,584.09"/>
        <lane id=":V0022_6_1" index="1" speed="5.46" length="4.15" shape="349.71,585.43 352.78,584.49 353.69,584.70"/>
    </edge>
    <edge id=":V0022_8" function="internal">
        <lane id=":V0022_8_0" index="0" speed="6.54" length="10.58" shape="353.92,584.09 354.61,583.87 357.41,584.28 358.10,586.65 356.68,590.99"/>
    </edge>
    <edge id=":V0022_9" function="internal">
        <lane id=":V0022_9_0" index="0" speed="5.46" length="5.77" shape="353.69,584.70 354.48,584.88 354.81,586.60 353.78,589.64"/>
    </edge>
    <edge id=":V0023_0" function="internal">
        <lane id=":V0023_0_0" index="0" speed="9.83" length="11.08" shape="371.22,559.74 369.93,563.00 369.30,565.86 369.31,568.33 369.98,570.40"/>
        <lane id=":V0023_0_1" index="1" speed="11.01" length="14.02" shape="368.32,558.39 366.78,562.37 366.08,565.94 366.20,569.12 367.15,571.89"/>
    </edge>
    <edge id=":V0023_2" function="internal">
        <lane id=":V0023_2_0" index="0" speed="12.00" length="12.62" shape="368.32,558.39 367.20,561.97 367.16,564.66 367.12,567.35 366.01,570.93"/>
        <lane id=":V0023_2_1" index="1" speed="12.00" length="12.62" shape="368.32,558.39 363.11,569.58"/>
    </edge>
    <edge id=":V0023_4" function="internal">
        <lane id=":V0023_4_0" index="0" speed="21.50" length="13.45" shape="363.68,558.51 369.98,570.40"/>
        <lane id=":V0023_4_1" index="1" speed="21.50" length="13.45" shape="360.85,560.00 367.15,571.89"/>
        <lane id=":V0023_4_2" index="2" speed="21.50" length="13.45" shape="358.03,561.50 364.32,573.39"/>
    </edge>
    <edge id=":V0023_7" function="internal">
        <lane id=":V0023_7_0" index="0" speed="9.16" length="9.55" shape="358.03,561.50 363.11,569.58"/>
    </edge>

    <edge id="E0003" from="V0002" to="V0003" priority="-1">
        <lane id="E0003_0" index="0" speed="16.00" length="231.93" shape="678.29,439.29 486.34,309.11"/>
    </edge>
    <edge id="E0021" from="V0005" to="V0009" priority="-1">
        <lane id="E0021_0" index="0" speed="25.00" length="481.37" shape="858.38,640.23 830.60,159.67"/>
        <lane id="E0021_1" index="1" speed="25.00" length="481.37" shape="861.58,640.05 833.80,159.48"/>
    </edge>
    <edge id="E0025" from="V0007" to="V0001" priority="-1">
        <lane id="E0025_0" index="0" speed="5.00" length="250.42" shape="269.04,749.65 18.75,741.38"/>
        <lane id="E0025_1" index="1" speed="5.00" length="250.42" shape="269.14,746.46 18.86,738.19"/>
    </edge>
    <edge id="E0027" from="V0005" to="V0006" priority="-1">
        <lane id="E0027_0" index="0" speed="15.00" length="308.46" shape="868.67,659.32 710.67,923.41"/>
        <lane id="E0027_1" index="1" speed="15.00" length="308.46" shape="865.92,657.67 707.55,922.38"/>
        <lane id="E0027_2" index="2" speed="15.00" length="308.46" shape="863.18,656.03 704.44,921.35"/>
    </edge>
    <edge id="E0029" from="V0006" to="V0001" priority="-1">
        <lane id="E0029_0" index="0" speed="13.00" length="678.74" shape="647.01,999.97 17.99,744.98"/>
    </edge>
    <edge id="E0033" from="V0007" to="V0006" priority="-1">
        <lane id="E0033_0" index="0" speed="6.00" length="427.92" shape="298.60,748.47 651.43,989.43"/>
        <lane id="E0033_1" index="1" speed="6.00" length="427.92" shape="296.79,751.11 650.16,992.45"/>
        <lane id="E0033_2" index="2" speed="6.00" length="427.92" shape="294.99,753.75 648.90,995.46"/>
    </edge>
    <edge id="E0037" from="V0009" to="V0002" priority="-1">
        <lane id="E0037_0" index="0" speed="26.00" length="302.82" shape="823.06,158.05 694.43,432.20"/>
    </edge>