<configuration><input><net-file value="20.net.xml" /><route-files value="20.rou.xml" /></input><time><begin value="0" /></time></configuration>