<configuration><input><net-file value="sim_21.net.xml" /><route-files value="sim_21.rou.xml" /></input><time><begin value="0" /></time></configuration>