<?xml version="1.0" encoding="UTF-8"?>

<!-- generated on 2023-06-26 19:44:23 by Eclipse SUMO netconvert Version 1.16.0
<configuration xmlns:xsi="http://www.w3.org/2001/XMLSchema-instance" xsi:noNamespaceSchemaLocation="http://sumo.dlr.de/xsd/netconvertConfiguration.xsd">

    <input>
        <node-files value="data/simulationConfigurations/optimized\optimized.nod.xml"/>
        <edge-files value="data/simulationConfigurations/optimized\optimized.edg.xml"/>
    </input>

    <output>
        <output-file value="data/simulationConfigurations/optimized\optimized.net.xml"/>
    </output>

</configuration>
-->

<net version="1.16" junctionCornerDetail="5" limitTurnSpeed="5.50" xmlns:xsi="http://www.w3.org/2001/XMLSchema-instance" xsi:noNamespaceSchemaLocation="http://sumo.dlr.de/xsd/net_file.xsd">

    <location netOffset="0.00,0.00" convBoundary="0.00,0.00,500.00,500.00" origBoundary="0.00,0.00,500.00,500.00" projParameter="!"/>

    <edge id=":0_0" function="internal">
        <lane id=":0_0_0" index="0" speed="7.67" length="21.63" shape="9.18,304.80 3.87,303.13 1.50,299.04 2.11,293.86 5.76,288.95"/>
        <lane id=":0_0_1" index="1" speed="7.00" length="17.72" shape="9.18,301.60 3.99,300.96 2.04,299.05 3.31,295.87 7.81,291.41"/>
    </edge>
    <edge id=":0_2" function="internal">
        <lane id=":0_2_0" index="0" speed="3.65" length="4.67" shape="9.18,301.60 7.98,300.80 7.58,300.00 7.98,299.20 9.18,298.40"/>
    </edge>
    <edge id=":1_0" function="internal">
        <lane id=":1_0_0" index="0" speed="13.90" length="49.41" shape="95.20,119.37 97.31,107.39 103.64,98.84 114.19,93.71 128.97,92.00"/>
        <lane id=":1_0_1" index="1" speed="13.80" length="44.26" shape="98.40,119.37 100.31,108.79 106.04,101.24 115.59,96.71 128.97,95.20"/>
    </edge>
    <edge id=":1_2" function="internal">
        <lane id=":1_2_0" index="0" speed="10.63" length="37.47" shape="98.40,119.37 101.04,110.80 107.85,108.41 117.19,110.75 127.41,116.35"/>
    </edge>
    <edge id=":1_3" function="internal">
        <lane id=":1_3_0" index="0" speed="3.65" length="4.67" shape="98.40,119.37 99.20,118.17 100.00,117.77 100.80,118.17 101.60,119.37"/>
    </edge>
    <edge id=":1_4" function="internal">
        <lane id=":1_4_0" index="0" speed="5.48" length="10.68" shape="109.95,117.81 107.70,115.01 106.09,114.34 105.12,115.79 104.80,119.37"/>
    </edge>
    <edge id=":1_5" function="internal">
        <lane id=":1_5_0" index="0" speed="10.71" length="38.03" shape="109.95,117.81 106.77,108.52 109.89,101.38 117.79,96.81 128.97,95.20"/>
        <lane id=":1_5_1" index="1" speed="10.28" length="34.95" shape="109.95,117.81 107.27,109.48 110.66,103.39 118.45,99.67 128.97,98.40"/>
    </edge>
    <edge id=":1_7" function="internal">
        <lane id=":1_7_0" index="0" speed="7.53" length="23.62" shape="109.95,117.81 109.26,113.41 113.62,112.02 120.51,113.16 127.41,116.35"/>
    </edge>
    <edge id=":1_8" function="internal">
        <lane id=":1_8_0" index="0" speed="5.48" length="10.68" shape="128.97,111.20 125.39,111.52 123.94,112.49 124.61,114.10 127.41,116.35"/>
    </edge>
    <edge id=":1_9" function="internal">
        <lane id=":1_9_0" index="0" speed="11.31" length="29.40" shape="128.97,108.00 118.39,108.71 110.84,110.84 106.31,114.39 104.80,119.37"/>
        <lane id=":1_9_1" index="1" speed="12.21" length="34.45" shape="128.97,104.80 116.99,105.71 108.44,108.44 103.31,112.99 101.60,119.37"/>
    </edge>
    <edge id=":1_11" function="internal">
        <lane id=":1_11_0" index="0" speed="3.65" length="4.67" shape="128.97,101.60 127.77,100.80 127.37,100.00 127.77,99.20 128.97,98.40"/>
    </edge>
    <edge id=":10_0" function="internal">
        <lane id=":10_0_0" index="0" speed="5.47" length="9.74" shape="295.20,119.45 294.85,116.36 293.81,114.94 292.07,115.21 289.64,117.15"/>
    </edge>
    <edge id=":10_1" function="internal">
        <lane id=":10_1_0" index="0" speed="8.56" length="16.39" shape="295.20,119.45 294.65,114.44 293.00,110.86 290.25,108.72 286.40,108.00"/>
        <lane id=":10_1_1" index="1" speed="9.74" length="21.53" shape="298.40,119.45 297.65,113.04 295.40,108.46 291.65,105.72 286.40,104.80"/>
        <lane id=":10_1_2" index="2" speed="10.31" length="24.25" shape="298.40,119.45 297.65,111.64 295.40,106.06 291.65,102.72 286.40,101.60"/>
    </edge>
    <edge id=":10_4" function="internal">
        <lane id=":10_4_0" index="0" speed="11.40" length="29.90" shape="298.40,119.45 299.15,108.84 301.40,101.26 305.15,96.72 310.40,95.20"/>
        <lane id=":10_4_1" index="1" speed="10.87" length="27.05" shape="298.40,119.45 299.15,110.24 301.40,103.66 305.15,99.72 310.40,98.40"/>
    </edge>
    <edge id=":10_6" function="internal">
        <lane id=":10_6_0" index="0" speed="3.65" length="4.67" shape="298.40,119.45 299.20,118.25 300.00,117.85 300.80,118.25 301.60,119.45"/>
    </edge>
    <edge id=":10_7" function="internal">
        <lane id=":10_7_0" index="0" speed="13.90" length="24.00" shape="286.40,92.00 310.40,92.00"/>
        <lane id=":10_7_1" index="1" speed="13.90" length="24.00" shape="286.40,95.20 310.40,95.20"/>
        <lane id=":10_7_2" index="2" speed="13.90" length="24.00" shape="286.40,98.40 310.40,98.40"/>
    </edge>
    <edge id=":10_10" function="internal">
        <lane id=":10_10_0" index="0" speed="11.76" length="31.84" shape="286.40,98.40 294.45,99.72 300.20,103.66 303.65,110.24 304.80,119.45"/>
        <lane id=":10_10_1" index="1" speed="11.31" length="29.38" shape="286.40,98.40 293.05,99.72 297.80,103.66 300.65,110.24 301.60,119.45"/>
    </edge>
    <edge id=":10_12" function="internal">
        <lane id=":10_12_0" index="0" speed="7.84" length="21.74" shape="286.40,98.40 291.34,100.06 292.76,104.21 291.25,109.57 287.38,114.89"/>
    </edge>
    <edge id=":10_13" function="internal">
        <lane id=":10_13_0" index="0" speed="3.65" length="4.67" shape="286.40,98.40 287.60,99.20 288.00,100.00 287.60,100.80 286.40,101.60"/>
    </edge>
    <edge id=":11_0" function="internal">
        <lane id=":11_0_0" index="0" speed="6.51" length="9.03" shape="295.20,210.40 294.85,207.95 293.80,206.20 292.05,205.15 289.60,204.80"/>
    </edge>
    <edge id=":11_1" function="internal">
        <lane id=":11_1_0" index="0" speed="13.90" length="20.80" shape="295.20,210.40 295.20,189.60"/>
        <lane id=":11_1_1" index="1" speed="13.90" length="20.80" shape="298.40,210.40 298.40,189.60"/>
    </edge>
    <edge id=":11_3" function="internal">
        <lane id=":11_3_0" index="0" speed="9.26" length="5.01" shape="298.40,210.40 299.11,205.44"/>
    </edge>
    <edge id=":11_4" function="internal">
        <lane id=":11_4_0" index="0" speed="3.65" length="1.44" shape="298.40,210.40 299.20,209.20"/>
    </edge>
    <edge id=":11_20" function="internal">
        <lane id=":11_20_0" index="0" speed="9.26" length="14.34" shape="299.11,205.44 299.15,205.15 301.40,201.40 305.15,199.15 310.40,198.40"/>
    </edge>
    <edge id=":11_21" function="internal">
        <lane id=":11_21_0" index="0" speed="3.65" length="3.23" shape="299.20,209.20 300.00,208.80 300.80,209.20 301.60,210.40"/>
    </edge>
    <edge id=":11_5" function="internal">
        <lane id=":11_5_0" index="0" speed="6.51" length="9.03" shape="310.40,204.80 307.95,205.15 306.20,206.20 305.15,207.95 304.80,210.40"/>
    </edge>
    <edge id=":11_6" function="internal">
        <lane id=":11_6_0" index="0" speed="13.90" length="20.80" shape="310.40,204.80 289.60,204.80"/>
        <lane id=":11_6_1" index="1" speed="13.90" length="20.80" shape="310.40,201.60 289.60,201.60"/>
    </edge>
    <edge id=":11_8" function="internal">
        <lane id=":11_8_0" index="0" speed="9.26" length="19.35" shape="310.40,201.60 305.15,200.85 301.40,198.60 299.15,194.85 298.40,189.60"/>
    </edge>
    <edge id=":11_9" function="internal">
        <lane id=":11_9_0" index="0" speed="3.65" length="4.67" shape="310.40,201.60 309.20,200.80 308.80,200.00 309.20,199.20 310.40,198.40"/>
    </edge>
    <edge id=":11_10" function="internal">
        <lane id=":11_10_0" index="0" speed="6.51" length="9.03" shape="304.80,189.60 305.15,192.05 306.20,193.80 307.95,194.85 310.40,195.20"/>
    </edge>
    <edge id=":11_11" function="internal">
        <lane id=":11_11_0" index="0" speed="13.90" length="20.80" shape="304.80,189.60 304.80,210.40"/>
        <lane id=":11_11_1" index="1" speed="13.90" length="20.80" shape="301.60,189.60 301.60,210.40"/>
    </edge>
    <edge id=":11_13" function="internal">
        <lane id=":11_13_0" index="0" speed="9.26" length="5.01" shape="301.60,189.60 300.89,194.56"/>
    </edge>
    <edge id=":11_14" function="internal">
        <lane id=":11_14_0" index="0" speed="3.65" length="1.44" shape="301.60,189.60 300.80,190.80"/>
    </edge>
    <edge id=":11_22" function="internal">
        <lane id=":11_22_0" index="0" speed="9.26" length="14.34" shape="300.89,194.56 300.85,194.85 298.60,198.60 294.85,200.85 289.60,201.60"/>
    </edge>
    <edge id=":11_23" function="internal">
        <lane id=":11_23_0" index="0" speed="3.65" length="3.23" shape="300.80,190.80 300.00,191.20 299.20,190.80 298.40,189.60"/>
    </edge>
    <edge id=":11_15" function="internal">
        <lane id=":11_15_0" index="0" speed="6.51" length="9.03" shape="289.60,195.20 292.05,194.85 293.80,193.80 294.85,192.05 295.20,189.60"/>
    </edge>
    <edge id=":11_16" function="internal">
        <lane id=":11_16_0" index="0" speed="13.90" length="20.80" shape="289.60,195.20 310.40,195.20"/>
        <lane id=":11_16_1" index="1" speed="13.90" length="20.80" shape="289.60,198.40 310.40,198.40"/>
    </edge>
    <edge id=":11_18" function="internal">
        <lane id=":11_18_0" index="0" speed="9.26" length="19.35" shape="289.60,198.40 294.85,199.15 298.60,201.40 300.85,205.15 301.60,210.40"/>
    </edge>
    <edge id=":11_19" function="internal">
        <lane id=":11_19_0" index="0" speed="3.65" length="4.67" shape="289.60,198.40 290.80,199.20 291.20,200.00 290.80,200.80 289.60,201.60"/>
    </edge>
    <edge id=":12_0" function="internal">
        <lane id=":12_0_0" index="0" speed="6.51" length="9.03" shape="295.20,310.40 294.85,307.95 293.80,306.20 292.05,305.15 289.60,304.80"/>
    </edge>
    <edge id=":12_1" function="internal">
        <lane id=":12_1_0" index="0" speed="13.90" length="21.09" shape="295.20,310.40 295.70,303.63 296.80,298.12 297.90,293.55 298.40,289.60"/>
    </edge>
    <edge id=":12_2" function="internal">
        <lane id=":12_2_0" index="0" speed="13.90" length="20.80" shape="298.40,310.40 298.40,289.60"/>
    </edge>
    <edge id=":12_3" function="internal">
        <lane id=":12_3_0" index="0" speed="9.26" length="5.01" shape="298.40,310.40 299.11,305.44"/>
    </edge>
    <edge id=":12_4" function="internal">
        <lane id=":12_4_0" index="0" speed="3.65" length="1.44" shape="298.40,310.40 299.20,309.20"/>
    </edge>
    <edge id=":12_17" function="internal">
        <lane id=":12_17_0" index="0" speed="9.26" length="14.34" shape="299.11,305.44 299.15,305.15 301.40,301.40 305.15,299.15 310.40,298.40"/>
    </edge>
    <edge id=":12_18" function="internal">
        <lane id=":12_18_0" index="0" speed="3.65" length="3.23" shape="299.20,309.20 300.00,308.80 300.80,309.20 301.60,310.40"/>
    </edge>
    <edge id=":12_5" function="internal">
        <lane id=":12_5_0" index="0" speed="6.51" length="9.03" shape="304.80,289.60 305.15,292.05 306.20,293.80 307.95,294.85 310.40,295.20"/>
    </edge>
    <edge id=":12_6" function="internal">
        <lane id=":12_6_0" index="0" speed="13.90" length="20.80" shape="304.80,289.60 304.80,310.40"/>
        <lane id=":12_6_1" index="1" speed="13.90" length="20.80" shape="301.60,289.60 301.60,310.40"/>
    </edge>
    <edge id=":12_8" function="internal">
        <lane id=":12_8_0" index="0" speed="9.26" length="5.01" shape="301.60,289.60 300.89,294.56"/>
    </edge>
    <edge id=":12_9" function="internal">
        <lane id=":12_9_0" index="0" speed="3.24" length="1.60" shape="301.60,289.60 300.00,289.60"/>
    </edge>
    <edge id=":12_10" function="internal">
        <lane id=":12_10_0" index="0" speed="3.65" length="1.44" shape="301.60,289.60 300.80,290.80"/>
    </edge>
    <edge id=":12_19" function="internal">
        <lane id=":12_19_0" index="0" speed="9.26" length="14.34" shape="300.89,294.56 300.85,294.85 298.60,298.60 294.85,300.85 289.60,301.60"/>
    </edge>
    <edge id=":12_20" function="internal">
        <lane id=":12_20_0" index="0" speed="3.24" length="1.60" shape="300.00,289.60 298.40,289.60"/>
    </edge>
    <edge id=":12_21" function="internal">
        <lane id=":12_21_0" index="0" speed="3.65" length="3.23" shape="300.80,290.80 300.00,291.20 299.20,290.80 298.40,289.60"/>
    </edge>
    <edge id=":12_11" function="internal">
        <lane id=":12_11_0" index="0" speed="7.33" length="11.73" shape="289.60,295.20 293.45,294.85 296.20,293.80 297.85,292.05 298.40,289.60"/>
    </edge>
    <edge id=":12_12" function="internal">
        <lane id=":12_12_0" index="0" speed="6.51" length="9.03" shape="289.60,295.20 292.05,294.85 293.80,293.80 294.85,292.05 295.20,289.60"/>
    </edge>
    <edge id=":12_13" function="internal">
        <lane id=":12_13_0" index="0" speed="13.90" length="20.80" shape="289.60,295.20 310.40,295.20"/>
        <lane id=":12_13_1" index="1" speed="13.90" length="20.80" shape="289.60,298.40 310.40,298.40"/>
    </edge>
    <edge id=":12_15" function="internal">
        <lane id=":12_15_0" index="0" speed="9.26" length="19.35" shape="289.60,298.40 294.85,299.15 298.60,301.40 300.85,305.15 301.60,310.40"/>
    </edge>
    <edge id=":12_16" function="internal">
        <lane id=":12_16_0" index="0" speed="3.65" length="4.67" shape="289.60,298.40 290.80,299.20 291.20,300.00 290.80,300.80 289.60,301.60"/>
    </edge>
    <edge id=":13_0" function="internal">
        <lane id=":13_0_0" index="0" speed="6.95" length="10.45" shape="295.20,410.40 294.74,407.95 293.37,406.20 291.09,405.15 287.89,404.80"/>
    </edge>
    <edge id=":13_1" function="internal">
        <lane id=":13_1_0" index="0" speed="13.90" length="23.28" shape="295.20,410.40 294.79,403.26 293.67,396.99 292.02,391.81 290.05,387.96"/>
    </edge>
    <edge id=":13_2" function="internal">
        <lane id=":13_2_0" index="0" speed="13.90" length="24.00" shape="295.20,410.40 295.20,386.40"/>
        <lane id=":13_2_1" index="1" speed="13.90" length="24.00" shape="298.40,410.40 298.40,386.40"/>
    </edge>
    <edge id=":13_4" function="internal">
        <lane id=":13_4_0" index="0" speed="9.26" length="5.01" shape="298.40,410.40 299.11,405.44"/>
    </edge>
    <edge id=":13_5" function="internal">
        <lane id=":13_5_0" index="0" speed="3.65" length="1.44" shape="298.40,410.40 299.20,409.20"/>
    </edge>
    <edge id=":13_18" function="internal">
        <lane id=":13_18_0" index="0" speed="9.26" length="14.34" shape="299.11,405.44 299.15,405.15 301.40,401.40 305.15,399.15 310.40,398.40"/>
    </edge>
    <edge id=":13_19" function="internal">
        <lane id=":13_19_0" index="0" speed="3.65" length="3.23" shape="299.20,409.20 300.00,408.80 300.80,409.20 301.60,410.40"/>
    </edge>
    <edge id=":13_6" function="internal">
        <lane id=":13_6_0" index="0" speed="7.33" length="11.73" shape="304.80,386.40 305.15,390.25 306.20,393.00 307.95,394.65 310.40,395.20"/>
    </edge>
    <edge id=":13_7" function="internal">
        <lane id=":13_7_0" index="0" speed="13.90" length="24.00" shape="304.80,386.40 304.80,410.40"/>
        <lane id=":13_7_1" index="1" speed="13.90" length="24.00" shape="301.60,386.40 301.60,410.40"/>
    </edge>
    <edge id=":13_9" function="internal">
        <lane id=":13_9_0" index="0" speed="10.12" length="5.53" shape="301.60,386.40 300.89,391.89"/>
    </edge>
    <edge id=":13_10" function="internal">
        <lane id=":13_10_0" index="0" speed="6.49" length="2.28" shape="301.60,386.40 300.85,388.55"/>
    </edge>
    <edge id=":13_11" function="internal">
        <lane id=":13_11_0" index="0" speed="3.65" length="1.44" shape="301.60,386.40 300.80,387.60"/>
    </edge>
    <edge id=":13_20" function="internal">
        <lane id=":13_20_0" index="0" speed="10.12" length="17.79" shape="300.89,391.89 300.74,393.05 298.17,397.80 293.89,400.65 287.89,401.60"/>
    </edge>
    <edge id=":13_21" function="internal">
        <lane id=":13_21_0" index="0" speed="6.49" length="13.44" shape="300.85,388.55 300.30,390.13 297.17,391.63 293.37,390.90 290.05,387.96"/>
    </edge>
    <edge id=":13_22" function="internal">
        <lane id=":13_22_0" index="0" speed="3.65" length="3.23" shape="300.80,387.60 300.00,388.00 299.20,387.60 298.40,386.40"/>
    </edge>
    <edge id=":13_12" function="internal">
        <lane id=":13_12_0" index="0" speed="5.91" length="10.51" shape="287.89,395.20 290.64,394.75 291.92,393.39 291.72,391.13 290.05,387.96"/>
    </edge>
    <edge id=":13_13" function="internal">
        <lane id=":13_13_0" index="0" speed="7.69" length="13.01" shape="287.89,395.20 291.09,394.65 293.37,393.00 294.74,390.25 295.20,386.40"/>
    </edge>
    <edge id=":13_14" function="internal">
        <lane id=":13_14_0" index="0" speed="13.90" length="22.51" shape="287.89,395.20 310.40,395.20"/>
        <lane id=":13_14_1" index="1" speed="13.90" length="22.51" shape="287.89,398.40 310.40,398.40"/>
    </edge>
    <edge id=":13_16" function="internal">
        <lane id=":13_16_0" index="0" speed="9.57" length="20.75" shape="287.89,398.40 293.89,399.15 298.17,401.40 300.74,405.15 301.60,410.40"/>
    </edge>
    <edge id=":13_17" function="internal">
        <lane id=":13_17_0" index="0" speed="3.65" length="4.67" shape="287.89,398.40 289.09,399.20 289.49,400.00 289.09,400.80 287.89,401.60"/>
    </edge>
    <edge id=":14_0" function="internal">
        <lane id=":14_0_0" index="0" speed="3.65" length="1.44" shape="301.60,474.86 300.80,476.06"/>
    </edge>
    <edge id=":14_3" function="internal">
        <lane id=":14_3_0" index="0" speed="3.65" length="3.23" shape="300.80,476.06 300.00,476.46 299.20,476.06 298.40,474.86"/>
    </edge>
    <edge id=":14_1" function="internal">
        <lane id=":14_1_0" index="0" speed="5.48" length="10.68" shape="290.05,476.42 292.30,479.22 293.91,479.89 294.88,478.44 295.20,474.86"/>
        <lane id=":14_1_1" index="1" speed="7.69" length="22.83" shape="287.39,478.20 292.21,484.18 295.65,485.62 297.71,482.52 298.40,474.86"/>
    </edge>
    <edge id=":15_0" function="internal">
        <lane id=":15_0_0" index="0" speed="9.82" length="21.91" shape="396.00,92.00 399.85,93.11 402.60,96.44 404.25,101.99 404.80,109.77"/>
        <lane id=":15_0_1" index="1" speed="8.69" length="16.91" shape="396.00,95.20 398.45,96.11 400.20,98.84 401.25,103.39 401.60,109.77"/>
    </edge>
    <edge id=":15_2" function="internal">
        <lane id=":15_2_0" index="0" speed="6.46" length="12.87" shape="396.00,98.40 398.65,99.01 399.61,100.85 398.87,103.92 396.45,108.21"/>
    </edge>
    <edge id=":16_0" function="internal">
        <lane id=":16_0_0" index="0" speed="6.51" length="9.03" shape="395.20,210.40 394.85,207.95 393.80,206.20 392.05,205.15 389.60,204.80"/>
        <lane id=":16_0_1" index="1" speed="8.00" length="14.19" shape="398.40,210.40 397.85,206.55 396.20,203.80 393.45,202.15 389.60,201.60"/>
    </edge>
    <edge id=":16_2" function="internal">
        <lane id=":16_2_0" index="0" speed="9.26" length="5.01" shape="398.40,210.40 399.11,205.44"/>
    </edge>
    <edge id=":16_3" function="internal">
        <lane id=":16_3_0" index="0" speed="3.65" length="1.44" shape="398.40,210.40 399.20,209.20"/>
    </edge>
    <edge id=":16_16" function="internal">
        <lane id=":16_16_0" index="0" speed="9.26" length="14.34" shape="399.11,205.44 399.15,205.15 401.40,201.40 405.15,199.15 410.40,198.40"/>
    </edge>
    <edge id=":16_17" function="internal">
        <lane id=":16_17_0" index="0" speed="3.65" length="3.23" shape="399.20,209.20 400.00,208.80 400.80,209.20 401.60,210.40"/>
    </edge>
    <edge id=":16_4" function="internal">
        <lane id=":16_4_0" index="0" speed="6.51" length="9.03" shape="410.40,204.80 407.95,205.15 406.20,206.20 405.15,207.95 404.80,210.40"/>
    </edge>
    <edge id=":16_5" function="internal">
        <lane id=":16_5_0" index="0" speed="13.90" length="20.80" shape="410.40,204.80 389.60,204.80"/>
        <lane id=":16_5_1" index="1" speed="13.90" length="20.80" shape="410.40,201.60 389.60,201.60"/>
    </edge>
    <edge id=":16_7" function="internal">
        <lane id=":16_7_0" index="0" speed="3.65" length="4.67" shape="410.40,201.60 409.20,200.80 408.80,200.00 409.20,199.20 410.40,198.40"/>
    </edge>
    <edge id=":16_8" function="internal">
        <lane id=":16_8_0" index="0" speed="6.51" length="9.03" shape="404.80,189.60 405.15,192.05 406.20,193.80 407.95,194.85 410.40,195.20"/>
    </edge>
    <edge id=":16_9" function="internal">
        <lane id=":16_9_0" index="0" speed="13.90" length="20.80" shape="404.80,189.60 404.80,210.40"/>
        <lane id=":16_9_1" index="1" speed="13.90" length="20.80" shape="401.60,189.60 401.60,210.40"/>
    </edge>
    <edge id=":16_11" function="internal">
        <lane id=":16_11_0" index="0" speed="9.26" length="14.65" shape="401.60,189.60 400.85,194.85 398.60,198.60 394.85,200.85 394.26,200.93"/>
    </edge>
    <edge id=":16_18" function="internal">
        <lane id=":16_18_0" index="0" speed="9.26" length="4.70" shape="394.26,200.93 389.60,201.60"/>
    </edge>
    <edge id=":16_12" function="internal">
        <lane id=":16_12_0" index="0" speed="13.90" length="20.80" shape="389.60,195.20 410.40,195.20"/>
        <lane id=":16_12_1" index="1" speed="13.90" length="20.80" shape="389.60,198.40 410.40,198.40"/>
    </edge>
    <edge id=":16_14" function="internal">
        <lane id=":16_14_0" index="0" speed="9.26" length="19.35" shape="389.60,198.40 394.85,199.15 398.60,201.40 400.85,205.15 401.60,210.40"/>
    </edge>
    <edge id=":16_15" function="internal">
        <lane id=":16_15_0" index="0" speed="3.65" length="4.67" shape="389.60,198.40 390.80,199.20 391.20,200.00 390.80,200.80 389.60,201.60"/>
    </edge>
    <edge id=":17_0" function="internal">
        <lane id=":17_0_0" index="0" speed="13.90" length="16.11" shape="395.20,304.00 395.20,287.89"/>
        <lane id=":17_0_1" index="1" speed="13.90" length="16.11" shape="398.40,304.00 398.40,287.89"/>
    </edge>
    <edge id=":17_2" function="internal">
        <lane id=":17_2_0" index="0" speed="3.65" length="1.44" shape="398.40,304.00 399.20,302.80"/>
    </edge>
    <edge id=":17_10" function="internal">
        <lane id=":17_10_0" index="0" speed="3.65" length="3.23" shape="399.20,302.80 400.00,302.40 400.80,302.80 401.60,304.00"/>
    </edge>
    <edge id=":17_3" function="internal">
        <lane id=":17_3_0" index="0" speed="13.90" length="16.11" shape="404.80,287.89 404.80,304.00"/>
        <lane id=":17_3_1" index="1" speed="13.90" length="16.11" shape="401.60,287.89 401.60,304.00"/>
    </edge>
    <edge id=":17_5" function="internal">
        <lane id=":17_5_0" index="0" speed="3.65" length="1.44" shape="401.60,287.89 400.80,289.09"/>
    </edge>
    <edge id=":17_11" function="internal">
        <lane id=":17_11_0" index="0" speed="3.65" length="3.23" shape="400.80,289.09 400.00,289.49 399.20,289.09 398.40,287.89"/>
    </edge>
    <edge id=":17_6" function="internal">
        <lane id=":17_6_0" index="0" speed="5.91" length="10.51" shape="387.96,290.05 391.13,291.72 393.39,291.92 394.75,290.64 395.20,287.89"/>
    </edge>
    <edge id=":17_7" function="internal">
        <lane id=":17_7_0" index="0" speed="12.52" length="19.96" shape="387.96,290.05 393.93,294.33 398.19,298.08 400.75,301.31 401.60,304.00"/>
    </edge>
    <edge id=":17_8" function="internal">
        <lane id=":17_8_0" index="0" speed="8.40" length="15.76" shape="386.40,295.20 391.65,294.74 395.40,293.37 397.65,291.09 398.40,287.89"/>
    </edge>
    <edge id=":17_9" function="internal">
        <lane id=":17_9_0" index="0" speed="8.83" length="17.50" shape="386.40,298.40 393.05,298.75 397.80,299.80 400.65,301.55 401.60,304.00"/>
    </edge>
    <edge id=":18_0" function="internal">
        <lane id=":18_0_0" index="0" speed="3.65" length="1.44" shape="401.60,389.60 400.80,390.80"/>
    </edge>
    <edge id=":18_3" function="internal">
        <lane id=":18_3_0" index="0" speed="3.65" length="3.23" shape="400.80,390.80 400.00,391.20 399.20,390.80 398.40,389.60"/>
    </edge>
    <edge id=":18_1" function="internal">
        <lane id=":18_1_0" index="0" speed="6.51" length="9.03" shape="389.60,395.20 392.05,394.85 393.80,393.80 394.85,392.05 395.20,389.60"/>
        <lane id=":18_1_1" index="1" speed="8.00" length="14.19" shape="389.60,398.40 393.45,397.85 396.20,396.20 397.85,393.45 398.40,389.60"/>
    </edge>
    <edge id=":19_0" function="internal">
        <lane id=":19_0_0" index="0" speed="7.43" length="22.32" shape="485.70,195.20 491.03,197.16 493.30,201.76 492.34,207.13 488.00,211.36"/>
        <lane id=":19_0_1" index="1" speed="5.99" length="13.86" shape="485.70,198.40 488.92,199.62 490.14,202.51 489.36,205.86 486.57,208.50"/>
    </edge>
    <edge id=":19_2" function="internal">
        <lane id=":19_2_0" index="0" speed="3.65" length="4.67" shape="485.70,198.40 486.90,199.20 487.30,200.00 486.90,200.80 485.70,201.60"/>
    </edge>
    <edge id=":2_0" function="internal">
        <lane id=":2_0_0" index="0" speed="13.90" length="24.00" shape="95.20,213.60 95.20,189.60"/>
        <lane id=":2_0_1" index="1" speed="13.90" length="24.00" shape="98.40,213.60 98.40,189.60"/>
    </edge>
    <edge id=":2_2" function="internal">
        <lane id=":2_2_0" index="0" speed="10.05" length="5.70" shape="98.40,213.60 99.11,207.94"/>
    </edge>
    <edge id=":2_3" function="internal">
        <lane id=":2_3_0" index="0" speed="6.49" length="2.28" shape="98.40,213.60 99.15,211.45"/>
    </edge>
    <edge id=":2_4" function="internal">
        <lane id=":2_4_0" index="0" speed="3.65" length="1.44" shape="98.40,213.60 99.20,212.40"/>
    </edge>
    <edge id=":2_10" function="internal">
        <lane id=":2_10_0" index="0" speed="10.05" length="17.29" shape="99.11,207.94 99.23,206.95 101.72,202.20 105.88,199.35 111.69,198.40"/>
    </edge>
    <edge id=":2_11" function="internal">
        <lane id=":2_11_0" index="0" speed="6.49" length="13.44" shape="99.15,211.45 99.70,209.87 102.83,208.37 106.63,209.10 109.95,212.04"/>
    </edge>
    <edge id=":2_12" function="internal">
        <lane id=":2_12_0" index="0" speed="3.65" length="3.23" shape="99.20,212.40 100.00,212.00 100.80,212.40 101.60,213.60"/>
    </edge>
    <edge id=":2_5" function="internal">
        <lane id=":2_5_0" index="0" speed="6.84" length="10.09" shape="104.80,189.60 105.23,192.05 106.52,193.80 108.68,194.85 111.69,195.20"/>
    </edge>
    <edge id=":2_6" function="internal">
        <lane id=":2_6_0" index="0" speed="13.90" length="22.59" shape="104.80,189.60 105.24,195.88 106.63,200.56 109.05,204.93 112.61,210.27"/>
    </edge>
    <edge id=":2_7" function="internal">
        <lane id=":2_7_0" index="0" speed="13.90" length="24.00" shape="104.80,189.60 104.80,213.60"/>
        <lane id=":2_7_1" index="1" speed="13.90" length="24.00" shape="101.60,189.60 101.60,213.60"/>
    </edge>
    <edge id=":2_9" function="internal">
        <lane id=":2_9_0" index="0" speed="3.65" length="1.44" shape="101.60,189.60 100.80,190.80"/>
    </edge>
    <edge id=":2_13" function="internal">
        <lane id=":2_13_0" index="0" speed="3.65" length="3.23" shape="100.80,190.80 100.00,191.20 99.20,190.80 98.40,189.60"/>
    </edge>
    <edge id=":3_0" function="internal">
        <lane id=":3_0_0" index="0" speed="6.51" length="9.03" shape="95.20,310.40 94.85,307.95 93.80,306.20 92.05,305.15 89.60,304.80"/>
    </edge>
    <edge id=":3_1" function="internal">
        <lane id=":3_1_0" index="0" speed="13.90" length="20.80" shape="95.20,310.40 95.20,289.60"/>
        <lane id=":3_1_1" index="1" speed="13.90" length="20.80" shape="98.40,310.40 98.40,289.60"/>
    </edge>
    <edge id=":3_3" function="internal">
        <lane id=":3_3_0" index="0" speed="9.26" length="5.01" shape="98.40,310.40 99.11,305.44"/>
    </edge>
    <edge id=":3_4" function="internal">
        <lane id=":3_4_0" index="0" speed="3.65" length="1.44" shape="98.40,310.40 99.20,309.20"/>
    </edge>
    <edge id=":3_20" function="internal">
        <lane id=":3_20_0" index="0" speed="9.26" length="14.34" shape="99.11,305.44 99.15,305.15 101.40,301.40 105.15,299.15 110.40,298.40"/>
    </edge>
    <edge id=":3_21" function="internal">
        <lane id=":3_21_0" index="0" speed="3.65" length="3.23" shape="99.20,309.20 100.00,308.80 100.80,309.20 101.60,310.40"/>
    </edge>
    <edge id=":3_5" function="internal">
        <lane id=":3_5_0" index="0" speed="6.51" length="9.03" shape="110.40,304.80 107.95,305.15 106.20,306.20 105.15,307.95 104.80,310.40"/>
    </edge>
    <edge id=":3_6" function="internal">
        <lane id=":3_6_0" index="0" speed="13.90" length="20.80" shape="110.40,304.80 89.60,304.80"/>
        <lane id=":3_6_1" index="1" speed="13.90" length="20.80" shape="110.40,301.60 89.60,301.60"/>
    </edge>
    <edge id=":3_8" function="internal">
        <lane id=":3_8_0" index="0" speed="9.26" length="19.35" shape="110.40,301.60 105.15,300.85 101.40,298.60 99.15,294.85 98.40,289.60"/>
    </edge>
    <edge id=":3_9" function="internal">
        <lane id=":3_9_0" index="0" speed="3.65" length="4.67" shape="110.40,301.60 109.20,300.80 108.80,300.00 109.20,299.20 110.40,298.40"/>
    </edge>
    <edge id=":3_10" function="internal">
        <lane id=":3_10_0" index="0" speed="6.51" length="9.03" shape="104.80,289.60 105.15,292.05 106.20,293.80 107.95,294.85 110.40,295.20"/>
    </edge>
    <edge id=":3_11" function="internal">