<configuration><input><net-file value="sim_15.net.xml" /><route-files value="sim_15.rou.xml" /></input><time><begin value="0" /></time></configuration>