<nodes><node id="V0001" x="275.7246666666667" y="306.65" type="priority" /><node id="V0002" x="14.811666666666667" y="462.0586666666667" type="priority" /><node id="V0003" x="188.02666666666667" y="147.1726666666667" type="priority" /><node id="V0004" x="520.3606666666667" y="819.3266666666666" type="priority" /><node id="V0005" x="655.5866666666666" y="217.65" type="priority" /><node id="V0006" x="857.6466666666668" y="934.7266666666667" type="priority" /><node id="V0007" x="213.97133333333335" y="849.4733333333334" type="priority" /><node id="V0008" x="914.9666666666667" y="471.79200000000003" type="priority" /><node id="V0009" x="732.02" y="627.5906666666667" type="priority" /><node id="V0010" x="320.42" y="713.8533333333332" type="priority" /><node id="V0011" x="268.89" y="310.7206666666667" type="priority" /><node id="V0012" x="347.77466666666663" y="335.0573333333333" type="priority" /><node id="V0013" x="627.336" y="343.348" type="priority" /><node id="V0014" x="570.6453333333334" y="773.7800000000001" type="priority" /><node id="V0015" x="414.6053333333333" y="763.5400000000001" type="priority" /><node id="V0016" x="237.2" y="645.2893333333334" type="priority" /><node id="V0017" x="733.62" y="631.506" type="priority" /><node id="V0018" x="454.3353333333333" y="685.7866666666666" type="priority" /><node id="V0019" x="363.0833333333333" y="329.218" type="priority" /><node id="V0020" x="563.4133333333334" y="588.6759999999999" type="priority" /><node id="V0021" x="269.07800000000003" y="365.07466666666664" type="priority" /><node id="V0022" x="337.10400000000004" y="322.5066666666667" type="priority" /><node id="V0023" x="488.5373333333334" y="281.3666666666667" type="priority" /><node id="V0024" x="535.0813333333333" y="753.8333333333334" type="priority" /><node id="V0025" x="655.4653333333333" y="696.94" type="priority" /><node id="V0026" x="571.5233333333333" y="774.2666666666667" type="priority" /><node id="V0027" x="479.1166666666667" y="735.9133333333334" type="priority" /><node id="V0028" x="555.1206666666666" y="664.6666666666666" type="priority" /><node id="V0029" x="424.7933333333333" y="691.98" type="priority" /><node id="V0030" x="386.0833333333333" y="547.7479999999999" type="priority" /><node id="V0031" x="615.8366666666666" y="394.514" type="priority" /><node id="V0032" x="571.766" y="590.6039999999999" type="priority" /><node id="V0033" x="291.53" y="356.5106666666667" type="priority" /><node id="V0034" x="243.45733333333334" y="590.2860000000001" type="priority" /><node id="V0035" x="274.0693333333333" y="321.19733333333335" type="priority" /><node id="V0036" x="632.6773333333333" y="670.14" type="priority" /><node id="V0037" x="657.118" y="698.8866666666667" type="priority" /><node id="V0038" x="469.9053333333333" y="717.2800000000001" type="priority" /><node id="V0039" x="616.9973333333332" y="651.698" type="priority" /><node id="V0040" x="545.4986666666666" y="707.48" type="priority" /><node id="V0041" x="251.822" y="516.7606666666667" type="priority" /><node id="V0042" x="570.3626666666667" y="596.8493333333333" type="priority" /><node id="V0043" x="492.7286666666667" y="730.08" type="priority" /></nodes>