<?xml version="1.0" encoding="UTF-8"?>

<!-- generated on 2023-06-26 02:05:26 by Eclipse SUMO netconvert Version 1.16.0
<configuration xmlns:xsi="http://www.w3.org/2001/XMLSchema-instance" xsi:noNamespaceSchemaLocation="http://sumo.dlr.de/xsd/netconvertConfiguration.xsd">

    <input>
        <node-files value="data/simulationConfigurations/tests/17\17.nod.xml"/>
        <edge-files value="data/simulationConfigurations/tests/17\17.edg.xml"/>
    </input>

    <output>
        <output-file value="data/simulationConfigurations/tests/17\17.net.xml"/>
    </output>

</configuration>
-->

<net version="1.16" junctionCornerDetail="5" limitTurnSpeed="5.50" xmlns:xsi="http://www.w3.org/2001/XMLSchema-instance" xsi:noNamespaceSchemaLocation="http://sumo.dlr.de/xsd/net_file.xsd">

    <location netOffset="-14.81,-147.17" convBoundary="0.00,0.00,900.15,787.55" origBoundary="14.81,147.17,914.97,934.73" projParameter="!"/>

    <edge id=":V0001_0" function="internal">
        <lane id=":V0001_0_0" index="0" speed="9.86" length="8.92" shape="264.09,168.56 256.42,164.02"/>
    </edge>
    <edge id=":V0001_1" function="internal">
        <lane id=":V0001_1_0" index="0" speed="3.16" length="2.00" shape="255.78,162.12 256.42,164.02"/>
    </edge>
    <edge id=":V0002_0" function="internal">
        <lane id=":V0002_0_0" index="0" speed="6.19" length="16.69" shape="19.84,308.66 25.12,305.31 26.71,303.75 24.63,303.97 18.86,305.98"/>
    </edge>
    <edge id=":V0002_1" function="internal">
        <lane id=":V0002_1_0" index="0" speed="6.56" length="14.86" shape="19.84,308.66 17.63,310.72 18.12,312.67 21.32,314.51 27.21,316.24"/>
        <lane id=":V0002_1_1" index="1" speed="7.41" length="19.42" shape="19.84,308.66 16.09,311.80 15.96,314.64 19.42,317.15 26.49,319.36"/>
    </edge>
    <edge id=":V0002_3" function="internal">
        <lane id=":V0002_3_0" index="0" speed="12.28" length="48.79" shape="19.84,308.66 18.07,312.85 23.03,319.34 34.71,328.11 53.11,339.17"/>
        <lane id=":V0002_3_1" index="1" speed="13.08" length="55.50" shape="18.72,305.60 14.95,311.34 19.16,319.31 31.36,329.52 51.55,341.96"/>
    </edge>
    <edge id=":V0002_5" function="internal">
        <lane id=":V0002_5_0" index="0" speed="13.46" length="53.15" shape="18.72,305.60 16.84,310.33 21.32,318.50 32.16,330.12 49.35,345.18"/>
        <lane id=":V0002_5_1" index="1" speed="13.73" length="55.36" shape="18.72,305.60 15.62,311.14 19.35,319.99 29.92,332.16 47.31,347.65"/>
        <lane id=":V0002_5_2" index="2" speed="14.02" length="57.76" shape="18.72,305.60 14.40,311.94 17.38,321.48 27.68,334.20 45.28,350.12"/>
    </edge>
    <edge id=":V0002_8" function="internal">
        <lane id=":V0002_8_0" index="0" speed="8.48" length="28.80" shape="18.72,305.60 10.22,309.28 1.99,310.63 -3.23,308.85 -2.70,303.19"/>
        <lane id=":V0002_8_1" index="1" speed="7.91" length="24.83" shape="18.72,305.60 11.36,308.97 4.21,310.55 -0.34,309.44 0.11,304.73"/>
        <lane id=":V0002_8_2" index="2" speed="7.32" length="21.00" shape="18.72,305.60 12.47,308.69 6.39,310.51 2.53,310.05 2.91,306.28"/>
    </edge>
    <edge id=":V0003_0" function="internal">
        <lane id=":V0003_0_0" index="0" speed="11.50" length="38.71" shape="164.28,-0.35 168.59,-3.85 176.06,-4.39 186.67,-1.98 200.44,3.40"/>
        <lane id=":V0003_0_1" index="1" speed="11.50" length="37.02" shape="164.28,-0.35 167.93,-2.61 174.96,-2.25 185.36,0.72 199.14,6.32"/>
        <lane id=":V0003_0_2" index="2" speed="11.50" length="35.62" shape="164.28,-0.35 167.27,-1.37 173.86,-0.12 184.05,3.42 197.83,9.24"/>
    </edge>
    <edge id=":V0003_3" function="internal">
        <lane id=":V0003_3_0" index="0" speed="11.00" length="35.44" shape="167.08,1.19 172.33,-3.17 179.07,-1.57 186.77,4.40 194.90,13.15"/>
        <lane id=":V0003_3_1" index="1" speed="10.58" length="32.70" shape="167.08,1.19 171.44,-1.72 177.51,0.61 184.71,6.73 192.46,15.23"/>
        <lane id=":V0003_3_2" index="2" speed="10.19" length="30.22" shape="167.08,1.19 170.52,-0.28 175.91,2.73 182.61,9.00 190.02,17.30"/>
    </edge>
    <edge id=":V0003_6" function="internal">
        <lane id=":V0003_6_0" index="0" speed="7.79" length="19.63" shape="169.89,2.73 171.92,1.14 174.64,2.54 178.02,6.93 182.08,14.33"/>
    </edge>
    <edge id=":V0004_0" function="internal">
        <lane id=":V0004_0_0" index="0" speed="10.50" length="27.19" shape="524.02,658.02 515.76,664.90 509.21,669.47 504.38,671.74 501.26,671.70"/>
    </edge>
    <edge id=":V0004_1" function="internal">
        <lane id=":V0004_1_0" index="0" speed="3.78" length="5.15" shape="524.02,658.02 522.45,658.25 521.53,657.89 521.27,656.94 521.66,655.40"/>
    </edge>
    <edge id=":V0004_2" function="internal">
        <lane id=":V0004_2_0" index="0" speed="5.47" length="10.51" shape="512.64,647.91 512.19,651.39 512.83,653.01 514.55,652.77 517.36,650.66"/>
    </edge>
    <edge id=":V0004_3" function="internal">
        <lane id=":V0004_3_0" index="0" speed="10.10" length="27.94" shape="512.64,647.91 510.14,657.99 507.43,666.05 504.48,670.99 501.26,671.70"/>
    </edge>
    <edge id=":V0004_4" function="internal">
        <lane id=":V0004_4_0" index="0" speed="7.88" length="16.64" shape="505.69,654.39 507.98,657.19 511.05,657.90 514.89,656.52 519.51,653.03"/>
        <lane id=":V0004_4_1" index="1" speed="9.15" length="22.86" shape="502.82,655.81 506.13,660.10 510.37,661.46 515.55,659.90 521.66,655.40"/>
    </edge>
    <edge id=":V0004_6" function="internal">
        <lane id=":V0004_6_0" index="0" speed="7.07" length="18.66" shape="499.95,657.22 502.59,663.03 504.42,668.48 504.34,671.93 501.26,671.70"/>
    </edge>
    <edge id=":V0005_0" function="internal">
        <lane id=":V0005_0_0" index="0" speed="6.25" length="11.93" shape="639.06,65.99 642.60,65.14 644.84,65.78 645.79,67.91 645.46,71.53"/>
        <lane id=":V0005_0_1" index="1" speed="3.99" length="3.98" shape="640.20,68.98 641.38,68.70 642.13,68.91 642.45,69.62 642.34,70.83"/>
    </edge>
    <edge id=":V0006_0" function="internal">
        <lane id=":V0006_0_0" index="0" speed="6.65" length="18.53" shape="835.67,776.65 831.08,771.79 828.76,770.65 828.71,773.23 830.91,779.54"/>
    </edge>
    <edge id=":V0006_1" function="internal">
        <lane id=":V0006_1_0" index="0" speed="7.61" length="20.88" shape="835.67,776.65 838.54,781.60 840.52,787.86 840.61,793.10 837.82,794.96"/>
    </edge>
    <edge id=":V0006_2" function="internal">
        <lane id=":V0006_2_0" index="0" speed="3.80" length="4.03" shape="832.60,779.98 833.62,780.38 834.14,780.16 834.16,779.32 833.68,777.86"/>
        <lane id=":V0006_2_1" index="1" speed="5.35" length="9.74" shape="832.60,779.98 835.47,781.22 837.07,781.00 837.40,779.31 836.45,776.17"/>
    </edge>
    <edge id=":V0006_4" function="internal">
        <lane id=":V0006_4_0" index="0" speed="6.57" length="17.59" shape="832.60,779.98 837.17,783.46 840.50,787.57 841.29,790.85 838.24,791.79"/>
        <lane id=":V0006_4_1" index="1" speed="5.52" length="11.86" shape="832.60,779.98 835.33,782.12 838.09,785.12 839.61,787.70 838.66,788.61"/>
    </edge>
    <edge id=":V0007_0" function="internal">
        <lane id=":V0007_0_0" index="0" speed="13.92" length="44.45" shape="220.70,713.22 207.58,709.97 198.60,704.23 193.75,696.01 193.04,685.30"/>
        <lane id=":V0007_0_1" index="1" speed="13.12" length="39.38" shape="221.12,710.05 209.34,707.17 201.26,702.15 196.89,694.98 196.22,685.66"/>
    </edge>
    <edge id=":V0007_2" function="internal">
        <lane id=":V0007_2_0" index="0" speed="10.09" length="32.64" shape="221.54,706.88 211.66,704.72 204.33,700.94 201.28,695.42 204.27,688.02"/>
    </edge>
    <edge id=":V0007_3" function="internal">
        <lane id=":V0007_3_0" index="0" speed="10.83" length="37.50" shape="220.83,701.72 210.39,704.20 202.21,702.18 197.18,695.92 196.22,685.66"/>
        <lane id=":V0007_3_1" index="1" speed="9.80" length="30.45" shape="219.57,698.78 211.07,700.84 204.35,699.30 200.21,694.31 199.40,686.02"/>
    </edge>
    <edge id=":V0007_5" function="internal">
        <lane id=":V0007_5_0" index="0" speed="6.69" length="17.47" shape="218.31,695.84 213.10,696.91 208.41,696.09 205.79,693.69 206.78,690.00"/>
    </edge>
    <edge id=":V0008_0" function="internal">
        <lane id=":V0008_0_0" index="0" speed="7.73" length="17.50" shape="898.01,318.41 902.19,321.07 903.80,324.19 902.83,327.75 899.30,331.77"/>
        <lane id=":V0008_0_1" index="1" speed="6.04" length="10.13" shape="897.19,321.54 899.40,323.02 900.13,324.81 899.40,326.93 897.19,329.37"/>
    </edge>
    <edge id=":V0008_2" function="internal">
        <lane id=":V0008_2_0" index="0" speed="3.97" length="5.60" shape="897.19,321.54 898.33,322.84 898.55,323.89 897.85,324.69 896.21,325.25"/>
    </edge>
    <edge id=":V0009_0" function="internal">
        <lane id=":V0009_0_0" index="0" speed="11.07" length="28.45" shape="711.22,486.92 709.27,486.80 704.16,488.30 695.91,491.42 684.51,496.16"/>
    </edge>
    <edge id=":V0009_1" function="internal">
        <lane id=":V0009_1_0" index="0" speed="12.64" length="31.84" shape="714.19,485.71 683.07,492.48"/>
        <lane id=":V0009_1_1" index="1" speed="13.28" length="35.26" shape="717.15,484.50 714.63,483.96 708.01,484.59 697.27,486.38 682.41,489.35"/>
    </edge>
    <edge id=":V0009_3" function="internal">
        <lane id=":V0009_3_0" index="0" speed="9.00" length="41.61" shape="709.99,473.83 714.53,477.68 709.16,483.47 697.82,490.02 684.51,496.16"/>
    </edge>
    <edge id=":V0009_4" function="internal">
        <lane id=":V0009_4_0" index="0" speed="9.29" length="36.42" shape="709.27,476.94 712.74,479.66 706.68,482.99 695.20,486.40 682.41,489.35"/>
    </edge>
    <edge id=":V0009_5" function="internal">
        <lane id=":V0009_5_0" index="0" speed="3.29" length="2.97" shape="685.76,498.11 685.01,498.87 684.84,499.25 685.26,499.26 686.26,498.89"/>
    </edge>
    <edge id=":V0009_6" function="internal">
        <lane id=":V0009_6_0" index="0" speed="7.22" length="20.37" shape="687.51,500.84 692.24,495.78 693.08,492.70 690.02,491.60 683.07,492.48"/>
        <lane id=":V0009_6_1" index="1" speed="9.16" length="33.96" shape="689.26,503.57 697.27,495.04 698.80,489.83 693.85,487.93 682.41,489.35"/>
    </edge>
    <edge id=":V0011_0" function="internal">
        <lane id=":V0011_0_0" index="0" speed="4.43" length="3.42" shape="256.25,164.12 259.66,164.02"/>
    </edge>
    <edge id=":V0011_1" function="internal">
        <lane id=":V0011_1_0" index="0" speed="16.50" length="6.31" shape="256.25,164.12 254.93,165.48 254.59,166.97 254.24,168.46 252.93,169.82"/>
        <lane id=":V0011_1_1" index="1" speed="16.50" length="6.31" shape="256.25,164.12 251.29,167.07"/>
    </edge>
    <edge id=":V0011_3" function="internal">
        <lane id=":V0011_3_0" index="0" speed="13.50" length="7.31" shape="253.76,159.30 255.16,160.99 256.71,161.66 258.27,162.33 259.66,164.02"/>
        <lane id=":V0011_3_1" index="1" speed="13.50" length="7.31" shape="253.76,159.30 256.80,165.43"/>
    </edge>
    <edge id=":V0011_5" function="internal">
        <lane id=":V0011_5_0" index="0" speed="6.73" length="9.15" shape="253.76,159.30 254.51,161.61 254.35,163.68 253.27,165.50 251.29,167.07"/>
    </edge>
    <edge id=":V0012_0" function="internal">
        <lane id=":V0012_0_0" index="0" speed="5.17" length="3.94" shape="336.27,179.42 339.30,176.91"/>
    </edge>
    <edge id=":V0012_1" function="internal">
        <lane id=":V0012_1_0" index="0" speed="18.50" length="10.53" shape="336.27,179.42 343.09,187.45"/>
        <lane id=":V0012_1_1" index="1" speed="18.50" length="10.53" shape="333.83,181.50 340.65,189.52"/>
        <lane id=":V0012_1_2" index="2" speed="18.50" length="10.53" shape="331.39,183.57 338.21,191.59"/>
    </edge>
    <edge id=":V0012_4" function="internal">
        <lane id=":V0012_4_0" index="0" speed="9.50" length="16.73" shape="324.30,182.63 339.30,176.91"/>
        <lane id=":V0012_4_1" index="1" speed="9.50" length="16.73" shape="324.30,182.63 328.97,181.38 332.37,181.26 335.77,181.14 340.44,179.90"/>
        <lane id=":V0012_4_2" index="2" speed="9.50" length="16.73" shape="324.30,182.63 329.27,181.80 332.94,182.76 336.61,183.71 341.58,182.89"/>
    </edge>
    <edge id=":V0012_7" function="internal">
        <lane id=":V0012_7_0" index="0" speed="10.01" length="16.87" shape="325.44,185.62 329.76,184.58 333.73,184.88 337.37,186.53 340.65,189.52"/>
        <lane id=":V0012_7_1" index="1" speed="8.81" length="12.90" shape="326.58,188.61 329.88,187.81 332.92,188.04 335.70,189.30 338.21,191.59"/>
    </edge>
    <edge id=":V0013_0" function="internal">
        <lane id=":V0013_0_0" index="0" speed="7.34" length="9.97" shape="619.36,187.66 619.13,190.32 619.73,192.56 621.17,194.38 623.43,195.79"/>
    </edge>
    <edge id=":V0013_1" function="internal">
        <lane id=":V0013_1_0" index="0" speed="15.50" length="14.37" shape="619.36,187.66 616.21,201.68"/>
        <lane id=":V0013_1_1" index="1" speed="15.50" length="14.37" shape="616.23,186.96 613.08,200.98"/>
    </edge>
    <edge id=":V0013_3" function="internal">
        <lane id=":V0013_3_0" index="0" speed="15.00" length="14.37" shape="610.31,189.93 623.43,195.79"/>
        <lane id=":V0013_3_1" index="1" speed="15.00" length="14.37" shape="609.01,192.85 622.13,198.71"/>
    </edge>
    <edge id=":V0013_5" function="internal">
        <lane id=":V0013_5_0" index="0" speed="7.34" length="9.97" shape="609.01,192.85 611.28,194.26 612.71,196.08 613.31,198.32 613.08,200.98"/>
    </edge>
    <edge id=":V0014_0" function="internal">
        <lane id=":V0014_0_0" index="0" speed="9.78" length="16.33" shape="548.41,613.27 553.93,616.10 558.31,617.73 561.53,618.17 563.60,617.41"/>
    </edge>
    <edge id=":V0014_1" function="internal">
        <lane id=":V0014_1_0" index="0" speed="19.50" length="13.38" shape="545.28,618.85 556.95,625.40"/>
    </edge>
    <edge id=":V0014_2" function="internal">
        <lane id=":V0014_2_0" index="0" speed="23.00" length="19.35" shape="545.94,624.77 551.17,621.38 556.04,619.94 560.28,619.08 563.60,617.41"/>
    </edge>
    <edge id=":V0014_3" function="internal">
        <lane id=":V0014_3_0" index="0" speed="7.05" length="8.07" shape="550.24,629.52 552.67,627.43 554.60,626.05 556.03,625.37 556.95,625.40"/>
    </edge>
    <edge id=":V0015_0" function="internal">
        <lane id=":V0015_0_0" index="0" speed="10.50" length="14.76" shape="411.66,624.44 409.02,623.62 405.77,623.62 401.90,624.45 397.40,626.09"/>
    </edge>
    <edge id=":V0015_1" function="internal">
        <lane id=":V0015_1_0" index="0" speed="7.50" length="18.76" shape="411.66,624.44 395.07,615.68"/>
    </edge>
    <edge id=":V0015_2" function="internal">
        <lane id=":V0015_2_0" index="0" speed="11.00" length="15.71" shape="411.84,619.91 397.40,626.09"/>
        <lane id=":V0015_2_1" index="1" speed="11.00" length="15.71" shape="410.58,616.97 396.14,623.15"/>
        <lane id=":V0015_2_2" index="2" speed="11.00" length="15.71" shape="409.32,614.03 394.88,620.21"/>
    </edge>
    <edge id=":V0015_5" function="internal">
        <lane id=":V0015_5_0" index="0" speed="8.00" length="14.76" shape="409.32,614.03 404.83,615.67 400.96,616.50 397.70,616.50 395.07,615.68"/>
    </edge>
    <edge id=":V0016_0" function="internal">
        <lane id=":V0016_0_0" index="0" speed="5.86" length="10.27" shape="215.55,482.12 218.42,484.01 220.58,484.37 222.03,483.21 222.78,480.52"/>
    </edge>
    <edge id=":V0016_1" function="internal">
        <lane id=":V0016_1_0" index="0" speed="21.50" length="19.45" shape="215.55,482.12 230.56,494.49"/>
        <lane id=":V0016_1_1" index="1" speed="21.50" length="19.45" shape="213.52,484.59 228.53,496.96"/>
        <lane id=":V0016_1_2" index="2" speed="21.50" length="19.45" shape="211.48,487.06 226.49,499.43"/>
    </edge>
    <edge id=":V0016_4" function="internal">
        <lane id=":V0016_4_0" index="0" speed="22.50" length="22.63" shape="213.99,501.19 215.82,493.95 218.65,488.54 221.35,484.28 222.78,480.52"/>
    </edge>
    <edge id=":V0016_5" function="internal">
        <lane id=":V0016_5_0" index="0" speed="7.39" length="17.19" shape="217.17,501.55 218.42,496.48 220.73,494.02 224.10,494.18 228.53,496.96"/>
        <lane id=":V0016_5_1" index="1" speed="5.62" length="9.30" shape="220.35,501.91 221.03,499.17 222.28,497.84 224.10,497.92 226.49,499.43"/>
    </edge>
    <edge id=":V0017_0" function="internal">
        <lane id=":V0017_0_0" index="0" speed="5.91" length="9.10" shape="716.74,500.42 715.42,498.14 713.80,497.11 711.89,497.32 709.69,498.76"/>
    </edge>
    <edge id=":V0017_1" function="internal">
        <lane id=":V0017_1_0" index="0" speed="13.50" length="14.38" shape="716.74,500.42 711.30,487.11"/>
        <lane id=":V0017_1_1" index="1" speed="13.50" length="14.38" shape="719.70,499.20 714.26,485.90"/>
        <lane id=":V0017_1_2" index="2" speed="13.50" length="14.38" shape="722.67,497.99 717.22,484.69"/>
    </edge>
    <edge id=":V0017_4" function="internal">
        <lane id=":V0017_4_0" index="0" speed="12.50" length="20.38" shape="724.98,485.29 709.69,498.76"/>
        <lane id=":V0017_4_1" index="1" speed="12.50" length="20.38" shape="722.87,482.89 707.57,496.36"/>
    </edge>
    <edge id=":V0017_6" function="internal">
        <lane id=":V0017_6_0" index="0" speed="6.24" length="10.30" shape="722.87,482.89 719.62,485.47 717.10,486.83 715.31,486.97 714.26,485.90"/>
        <lane id=":V0017_6_1" index="1" speed="5.20" length="6.76" shape="722.87,482.89 720.76,484.55 719.11,485.40 717.93,485.45 717.22,484.69"/>
    </edge>
    <edge id=":V0018_0" function="internal">
        <lane id=":V0018_0_0" index="0" speed="6.93" length="12.39" shape="454.28,537.16 451.96,538.27 450.96,540.37 451.26,543.46 452.86,547.54"/>
    </edge>
    <edge id=":V0018_1" function="internal">
        <lane id=":V0018_1_0" index="0" speed="12.00" length="19.27" shape="454.28,537.16 450.92,538.88 447.56,541.83 443.31,544.97 437.25,547.26"/>
        <lane id=":V0018_1_1" index="1" speed="12.00" length="19.27" shape="454.28,537.16 450.76,538.41 447.09,540.30 442.59,542.36 436.59,544.13"/>
        <lane id=":V0018_1_2" index="2" speed="12.00" length="19.27" shape="454.28,537.16 435.94,541.00"/>
    </edge>
    <edge id=":V0018_4" function="internal">
        <lane id=":V0018_4_0" index="0" speed="22.00" length="17.91" shape="442.05,532.90 449.99,548.96"/>
        <lane id=":V0018_4_1" index="1" speed="22.00" length="17.91" shape="439.19,534.32 447.12,550.38"/>
    </edge>
    <edge id=":V0018_6" function="internal">
        <lane id=":V0018_6_0" index="0" speed="6.89" length="12.24" shape="439.19,534.32 440.58,538.08 440.61,540.97 439.28,542.99 436.59,544.13"/>
        <lane id=":V0018_6_1" index="1" speed="6.03" length="9.07" shape="439.19,534.32 439.99,536.78 439.72,538.71 438.37,540.12 435.94,541.00"/>
    </edge>
    <edge id=":V0019_0" function="internal">
        <lane id=":V0019_0_0" index="0" speed="13.50" length="17.45" shape="351.74,184.59 348.16,184.19 344.36,184.34 339.87,184.32 334.22,183.37"/>
        <lane id=":V0019_0_1" index="1" speed="13.50" length="17.45" shape="351.74,184.59 335.02,180.28"/>
    </edge>
    <edge id=":V0019_2" function="internal">
        <lane id=":V0019_2_0" index="0" speed="6.64" length="4.54" shape="351.74,184.59 347.47,183.09"/>
        <lane id=":V0019_2_1" index="1" speed="5.47" length="4.17" shape="351.74,184.59 348.45,183.41 348.01,182.91"/>
    </edge>
    <edge id=":V0019_8" function="internal">
        <lane id=":V0019_8_0" index="0" speed="6.64" length="11.79" shape="347.47,183.09 346.37,182.70 344.34,180.66 345.65,178.47 350.30,176.13"/>
    </edge>
    <edge id=":V0019_9" function="internal">
        <lane id=":V0019_9_0" index="0" speed="5.47" length="6.32" shape="348.01,182.91 347.30,182.10 348.30,180.67 351.44,179.12"/>
    </edge>
    <edge id=":V0019_4" function="internal">
        <lane id=":V0019_4_0" index="0" speed="5.66" length="11.39" shape="339.49,176.83 333.42,186.47"/>
    </edge>
    <edge id=":V0019_5" function="internal">
        <lane id=":V0019_5_0" index="0" speed="13.00" length="10.35" shape="339.49,176.83 349.16,173.15"/>
        <lane id=":V0019_5_1" index="1" speed="13.00" length="10.35" shape="340.63,179.82 350.30,176.13"/>
        <lane id=":V0019_5_2" index="2" speed="13.00" length="10.35" shape="341.77,182.81 351.44,179.12"/>
    </edge>
    <edge id=":V0020_0" function="internal">
        <lane id=":V0020_0_0" index="0" speed="14.91" length="14.95" shape="546.78,427.01 549.59,430.45 551.74,432.75 554.33,434.32 558.47,435.57"/>
        <lane id=":V0020_0_1" index="1" speed="15.00" length="17.02" shape="544.34,429.08 547.56,432.97 550.03,435.55 553.02,437.29 557.75,438.69"/>
    </edge>
    <edge id=":V0020_2" function="internal">
        <lane id=":V0020_2_0" index="0" speed="13.00" length="19.31" shape="541.90,431.15 545.99,435.19 549.32,437.41 552.65,439.63 556.74,443.66"/>
        <lane id=":V0020_2_1" index="1" speed="13.00" length="19.31" shape="541.90,431.15 554.30,445.73"/>
    </edge>
    <edge id=":V0020_4" function="internal">
        <lane id=":V0020_4_0" index="0" speed="8.50" length="18.64" shape="539.83,434.55 545.30,435.30 549.15,435.06 553.00,434.82 558.47,435.57"/>
        <lane id=":V0020_4_1" index="1" speed="8.50" length="18.64" shape="539.11,437.67 544.58,438.42 548.43,438.18 552.28,437.94 557.75,438.69"/>
        <lane id=":V0020_4_2" index="2" speed="8.50" length="18.64" shape="539.11,437.67 557.03,441.81"/>
    </edge>
    <edge id=":V0020_7" function="internal">
        <lane id=":V0020_7_0" index="0" speed="6.50" length="17.72" shape="539.11,437.67 544.24,438.83 547.76,439.97 550.75,441.98 554.30,445.73"/>
    </edge>
    <edge id=":V0021_0" function="internal">
        <lane id=":V0021_0_0" index="0" speed="8.65" length="10.64" shape="244.69,219.84 246.81,218.64 248.43,216.82 249.55,214.40 250.18,211.36"/>
    </edge>
    <edge id=":V0021_1" function="internal">
        <lane id=":V0021_1_0" index="0" speed="23.50" length="13.73" shape="244.69,219.84 257.52,214.95"/>
    </edge>
    <edge id=":V0021_2" function="internal">
        <lane id=":V0021_2_0" index="0" speed="17.50" length="11.78" shape="248.85,223.07 250.18,211.36"/>
        <lane id=":V0021_2_1" index="1" speed="17.50" length="11.78" shape="252.03,223.43 253.36,211.72"/>
    </edge>
    <edge id=":V0021_4" function="internal">
        <lane id=":V0021_4_0" index="0" speed="8.65" length="10.64" shape="252.03,223.43 252.66,220.40 253.78,217.97 255.40,216.16 257.52,214.95"/>
    </edge>
    <edge id=":V0022_0" function="internal">
        <lane id=":V0022_0_0" index="0" speed="4.81" length="7.72" shape="333.23,186.42 336.14,179.27"/>
        <lane id=":V0022_0_1" index="1" speed="3.04" length="2.01" shape="334.03,183.32 333.70,181.34"/>
    </edge>
    <edge id=":V0022_2" function="internal">
        <lane id=":V0022_2_0" index="0" speed="9.50" length="17.99" shape="334.83,180.23 329.43,179.86 325.62,181.15 321.81,182.44 316.42,182.08"/>
        <lane id=":V0022_2_1" index="1" speed="9.50" length="17.99" shape="334.83,180.23 329.67,179.41 326.02,179.60 322.37,179.80 317.22,178.98"/>
        <lane id=":V0022_2_2" index="2" speed="9.50" length="17.99" shape="334.83,180.23 318.02,175.88"/>
    </edge>
    <edge id=":V0022_5" function="internal">
        <lane id=":V0022_5_0" index="0" speed="14.00" length="15.97" shape="325.80,167.10 336.14,179.27"/>
        <lane id=":V0022_5_1" index="1" speed="14.00" length="15.97" shape="323.36,169.18 333.70,181.34"/>
        <lane id=":V0022_5_2" index="2" speed="14.00" length="15.97" shape="320.92,171.25 331.26,183.42"/>
    </edge>
    <edge id=":V0022_8" function="internal">
        <lane id=":V0022_8_0" index="0" speed="6.65" length="4.54" shape="320.92,171.25 323.55,174.95"/>
        <lane id=":V0022_8_1" index="1" speed="5.47" length="4.17" shape="320.92,171.25 322.94,174.13 323.01,174.78"/>
    </edge>
    <edge id=":V0022_10" function="internal">
        <lane id=":V0022_10_0" index="0" speed="6.65" length="11.84" shape="323.55,174.95 324.24,175.91 324.73,178.75 322.39,179.77 317.22,178.98"/>
    </edge>
    <edge id=":V0022_11" function="internal">
        <lane id=":V0022_11_0" index="0" speed="5.47" length="6.34" shape="323.01,174.78 323.13,175.86 321.49,176.44 318.02,175.88"/>
    </edge>
    <edge id=":V0023_0" function="internal">
        <lane id=":V0023_0_0" index="0" speed="10.50" length="20.68" shape="463.07,120.67 468.53,123.67 472.47,126.10 476.45,127.12 482.03,125.89"/>
        <lane id=":V0023_0_1" index="1" speed="10.50" length="23.02" shape="461.76,123.60 468.04,126.82 472.74,129.26 477.30,130.19 483.17,128.88"/>
    </edge>
    <edge id=":V0023_2" function="internal">
        <lane id=":V0023_2_0" index="0" speed="10.50" length="23.45" shape="460.46,126.52 467.24,129.00 472.36,130.08 477.18,131.03 483.05,133.10"/>
        <lane id=":V0023_2_1" index="1" speed="10.50" length="23.45" shape="460.46,126.52 481.74,136.02"/>
    </edge>
    <edge id=":V0023_4" function="internal">
        <lane id=":V0023_4_0" index="0" speed="14.50" length="22.29" shape="460.34,130.74 466.79,128.81 471.57,128.17 476.16,127.59 482.03,125.89"/>
        <lane id=":V0023_4_1" index="1" speed="14.50" length="22.29" shape="461.48,133.73 467.93,131.80 472.71,131.16 477.30,130.58 483.17,128.88"/>
    </edge>
    <edge id=":V0023_6" function="internal">
        <lane id=":V0023_6_0" index="0" speed="14.50" length="20.01" shape="462.62,136.72 468.15,134.62 472.26,133.63 476.33,134.01 481.74,136.02"/>
    </edge>
    <edge id=":V0024_0" function="internal">
        <lane id=":V0024_0_0" index="0" speed="6.59" length="7.24" shape="530.30,598.53 530.12,600.44 530.52,602.09 531.49,603.49 533.02,604.64"/>
        <lane id=":V0024_0_1" index="1" speed="8.11" length="11.37" shape="527.17,597.83 526.90,600.83 527.53,603.43 529.04,605.63 531.46,607.43"/>
    </edge>
    <edge id=":V0024_2" function="internal">
        <lane id=":V0024_2_0" index="0" speed="20.00" length="14.07" shape="524.05,597.12 520.97,610.85"/>
    </edge>
    <edge id=":V0024_3" function="internal">
        <lane id=":V0024_3_0" index="0" speed="16.50" length="14.78" shape="517.62,603.34 520.92,604.04 524.43,603.49 528.38,603.19 533.02,604.64"/>
        <lane id=":V0024_3_1" index="1" speed="16.50" length="14.78" shape="517.62,603.34 520.74,604.51 523.81,604.98 527.25,605.65 531.46,607.43"/>
        <lane id=":V0024_3_2" index="2" speed="16.50" length="14.78" shape="517.62,603.34 529.89,610.22"/>
    </edge>
    <edge id=":V0024_6" function="internal">
        <lane id=":V0024_6_0" index="0" speed="7.24" length="8.89" shape="517.62,603.34 519.51,604.75 520.69,606.47 521.18,608.51 520.97,610.85"/>
    </edge>
    <edge id=":V0025_0" function="internal">
        <lane id=":V0025_0_0" index="0" speed="6.44" length="9.03" shape="637.74,533.99 639.60,535.64 641.53,536.27 643.53,535.89 645.59,534.50"/>
        <lane id=":V0025_0_1" index="1" speed="7.95" length="14.31" shape="635.30,536.06 638.25,538.67 641.31,539.68 644.47,539.08 647.74,536.87"/>
    </edge>
    <edge id=":V0025_2" function="internal">
        <lane id=":V0025_2_0" index="0" speed="18.50" length="15.28" shape="632.86,538.14 636.17,541.26 638.96,542.84 641.75,544.42 645.06,547.54"/>
        <lane id=":V0025_2_1" index="1" speed="18.50" length="15.28" shape="632.86,538.14 642.62,549.61"/>
    </edge>
    <edge id=":V0025_4" function="internal">
        <lane id=":V0025_4_0" index="0" speed="22.00" length="18.46" shape="636.62,551.27 638.59,548.13 639.85,544.02 641.74,539.34 645.59,534.50"/>
        <lane id=":V0025_4_1" index="1" speed="22.00" length="18.46" shape="636.62,551.27 638.97,548.46 641.04,545.10 643.68,541.23 647.74,536.87"/>
        <lane id=":V0025_4_2" index="2" speed="22.00" length="18.46" shape="636.62,551.27 649.89,539.25"/>
    </edge>
    <edge id=":V0025_7" function="internal">
        <lane id=":V0025_7_0" index="0" speed="5.73" length="6.92" shape="636.62,551.27 638.56,549.74 640.21,548.96 641.56,548.91 642.62,549.61"/>
    </edge>
    <edge id=":V0026_0" function="internal">
        <lane id=":V0026_0_0" index="0" speed="5.90" length="9.11" shape="564.16,622.67 562.45,624.67 562.00,626.53 562.83,628.27 564.92,629.86"/>
    </edge>
    <edge id=":V0026_1" function="internal">
        <lane id=":V0026_1_0" index="0" speed="14.00" length="12.52" shape="564.16,622.67 554.77,630.94"/>
    </edge>
    <edge id=":V0026_2" function="internal">
        <lane id=":V0026_2_0" index="0" speed="12.50" length="8.94" shape="557.12,625.49 564.92,629.86"/>
    </edge>
    <edge id=":V0026_3" function="internal">
        <lane id=":V0026_3_0" index="0" speed="5.21" length="6.84" shape="557.12,625.49 557.86,626.32 557.71,627.51 556.68,629.04 554.77,630.94"/>
    </edge>
    <edge id=":V0027_0" function="internal">
        <lane id=":V0027_0_0" index="0" speed="6.72" length="10.10" shape="477.49,588.31 476.11,589.47 475.65,591.37 476.12,594.02 477.51,597.40"/>
        <lane id=":V0027_0_1" index="1" speed="8.15" length="15.37" shape="476.23,585.37 473.58,587.30 472.43,590.19 472.79,594.03 474.64,598.82"/>
    </edge>
    <edge id=":V0027_2" function="internal">
        <lane id=":V0027_2_0" index="0" speed="13.50" length="16.95" shape="476.23,585.37 472.02,588.26 470.00,591.52 467.98,594.78 463.78,597.67"/>
        <lane id=":V0027_2_1" index="1" speed="13.50" length="16.95" shape="476.23,585.37 471.94,587.75 469.37,590.05 466.81,592.35 462.52,594.73"/>
        <lane id=":V0027_2_2" index="2" speed="13.50" length="16.95" shape="476.23,585.37 461.26,591.79"/>
    </edge>
    <edge id=":V0027_5" function="internal">
        <lane id=":V0027_5_0" index="0" speed="21.50" length="17.61" shape="469.70,581.61 477.51,597.40"/>
        <lane id=":V0027_5_1" index="1" speed="21.50" length="17.61" shape="466.84,583.03 474.64,598.82"/>