<configuration><input><net-file value="17.net.xml" /><route-files value="17.rou.xml" /></input><time><begin value="0" /></time></configuration>