<edges><edge id="E0001" from="V0001" to="V0002" numLanes="3" speed="19.0" /><edge id="E0009" from="V0005" to="V0006" numLanes="3" speed="14.0" /><edge id="E0017" from="V0004" to="V0010" numLanes="2" speed="14.0" /><edge id="E0023" from="V0006" to="V0010" numLanes="1" speed="16.0" /><edge id="E0031" from="V0007" to="V0001" numLanes="3" speed="22.0" /><edge id="E0033" from="V0007" to="V0003" numLanes="3" speed="16.0" /><edge id="E0043" from="V0011" to="V0003" numLanes="2" speed="9.0" /><edge id="E0047" from="V0011" to="V0007" numLanes="3" speed="16.0" /><edge id="E0046" from="V0001" to="V0012" numLanes="2" speed="25.0" /><edge id="E0050" from="V0004" to="V0013" numLanes="3" speed="16.0" /><edge id="E0052" from="V0013" to="V0008" numLanes="2" speed="24.0" /><edge id="E0054" from="V0001" to="V0014" numLanes="3" speed="22.0" /><edge id="E0057" from="V0002" to="V0014" numLanes="1" speed="5.0" /><edge id="E0059" from="V0014" to="V0012" numLanes="3" speed="25.0" /><edge id="E0060" from="V0015" to="V0008" numLanes="2" speed="22.0" /><edge id="E0065" from="V0010" to="V0016" numLanes="2" speed="22.0" /><edge id="E0071" from="V0017" to="V0008" numLanes="3" speed="12.0" /><edge id="E0072" from="V0018" to="V0005" numLanes="2" speed="22.0" /><edge id="E0073" from="V0006" to="V0018" numLanes="3" speed="17.0" /><edge id="E0076" from="V0019" to="V0011" numLanes="2" speed="11.0" /><edge id="E0079" from="V0019" to="V0007" numLanes="3" speed="7.0" /><edge id="E0078" from="V0005" to="V0020" numLanes="2" speed="19.0" /><edge id="E0080" from="V0020" to="V0011" numLanes="3" speed="11.0" /><edge id="E0083" from="V0020" to="V0003" numLanes="2" speed="13.0" /><edge id="E0084" from="V0021" to="V0004" numLanes="3" speed="19.0" /><edge id="E0087" from="V0021" to="V0013" numLanes="2" speed="13.0" /><edge id="E0089" from="V0017" to="V0022" numLanes="3" speed="9.0" /><edge id="E0090" from="V0013" to="V0023" numLanes="3" speed="12.0" /><edge id="E0092" from="V0023" to="V0010" numLanes="3" speed="13.0" /><edge id="E0093" from="V0004" to="V0023" numLanes="3" speed="23.0" /><edge id="E0094" from="V0014" to="V0024" numLanes="1" speed="22.0" /><edge id="E0096" from="V0024" to="V0009" numLanes="2" speed="11.0" /><edge id="E0097" from="V0002" to="V0024" numLanes="2" speed="12.0" /><edge id="E0098" from="V0010" to="V0025" numLanes="3" speed="15.0" /><edge id="E0100" from="V0025" to="V0015" numLanes="1" speed="13.0" /><edge id="E0101" from="V0023" to="V0025" numLanes="2" speed="20.0" /><edge id="E0103" from="V0025" to="V0016" numLanes="3" speed="19.0" /><edge id="E0102" from="V0016" to="V0026" numLanes="2" speed="23.0" /><edge id="E0104" from="V0026" to="V0006" numLanes="2" speed="14.0" /><edge id="E0105" from="V0010" to="V0026" numLanes="1" speed="9.0" /><edge id="E0107" from="V0026" to="V0018" numLanes="3" speed="15.0" /><edge id="E0108" from="V0027" to="V0017" numLanes="1" speed="19.0" /><edge id="E0109" from="V0012" to="V0027" numLanes="1" speed="9.0" /><edge id="E0111" from="V0027" to="V0021" numLanes="2" speed="21.0" /><edge id="E0110" from="V0001" to="V0028" numLanes="2" speed="11.0" /><edge id="E0112" from="V0028" to="V0017" numLanes="1" speed="14.0" /><edge id="E0113" from="V0012" to="V0028" numLanes="3" speed="6.0" /><edge id="E0115" from="V0028" to="V0022" numLanes="2" speed="15.0" /><edge id="E0114" from="V0018" to="V0029" numLanes="2" speed="22.0" /><edge id="E0116" from="V0029" to="V0015" numLanes="2" speed="8.0" /><edge id="E0117" from="V0016" to="V0029" numLanes="1" speed="18.0" /><edge id="E0118" from="V0001" to="V0030" numLanes="1" speed="11.0" /><edge id="E0120" from="V0030" to="V0019" numLanes="2" speed="6.0" /><edge id="E0121" from="V0022" to="V0030" numLanes="1" speed="17.0" /><edge id="E0123" from="V0030" to="V0007" numLanes="3" speed="19.0" /><edge id="E0122" from="V0015" to="V0031" numLanes="3" speed="22.0" /><edge id="E0124" from="V0031" to="V0019" numLanes="3" speed="12.0" /><edge id="E0125" from="V0022" to="V0031" numLanes="1" speed="6.0" /><edge id="E0126" from="V0024" to="V0032" numLanes="3" speed="7.0" /><edge id="E0128" from="V0032" to="V0021" numLanes="2" speed="26.0" /><edge id="E0129" from="V0009" to="V0032" numLanes="3" speed="25.0" /><edge id="E0131" from="V0032" to="V0027" numLanes="2" speed="6.0" /><edge id="E0130" from="V0029" to="V0033" numLanes="3" speed="21.0" /><edge id="E0132" from="V0033" to="V0020" numLanes="2" speed="14.0" /><edge id="E0133" from="V0031" to="V0033" numLanes="3" speed="8.0" /><edge id="E0135" from="V0033" to="V0005" numLanes="1" speed="15.0" /></edges>