<?xml version="1.0" encoding="UTF-8"?>

<!-- generated on 2023-06-26 02:05:29 by Eclipse SUMO netconvert Version 1.16.0
<configuration xmlns:xsi="http://www.w3.org/2001/XMLSchema-instance" xsi:noNamespaceSchemaLocation="http://sumo.dlr.de/xsd/netconvertConfiguration.xsd">

    <input>
        <node-files value="data/simulationConfigurations/tests/21\21.nod.xml"/>
        <edge-files value="data/simulationConfigurations/tests/21\21.edg.xml"/>
    </input>

    <output>
        <output-file value="data/simulationConfigurations/tests/21\21.net.xml"/>
    </output>

</configuration>
-->

<net version="1.16" junctionCornerDetail="5" limitTurnSpeed="5.50" xmlns:xsi="http://www.w3.org/2001/XMLSchema-instance" xsi:noNamespaceSchemaLocation="http://sumo.dlr.de/xsd/net_file.xsd">

    <location netOffset="-1.53,-16.47" convBoundary="0.00,0.00,937.43,1045.28" origBoundary="1.53,16.47,938.96,1061.75" projParameter="!"/>

    <edge id=":V0001_0" function="internal">
        <lane id=":V0001_0_0" index="0" speed="6.97" length="9.27" shape="230.67,440.16 232.13,438.53 232.74,436.59 232.50,434.34 231.41,431.78"/>
        <lane id=":V0001_0_1" index="1" speed="7.72" length="11.59" shape="230.67,440.16 233.26,437.68 234.72,435.20 235.03,432.71 234.20,430.22"/>
        <lane id=":V0001_0_2" index="2" speed="8.47" length="14.14" shape="230.67,440.16 234.39,436.83 236.69,433.81 237.55,431.08 237.00,428.66"/>
    </edge>
    <edge id=":V0001_3" function="internal">
        <lane id=":V0001_3_0" index="0" speed="22.00" length="18.25" shape="230.67,440.16 245.38,429.20"/>
        <lane id=":V0001_3_1" index="1" speed="22.00" length="18.25" shape="232.65,442.68 247.17,431.86"/>
        <lane id=":V0001_3_2" index="2" speed="22.00" length="18.25" shape="232.65,442.68 237.16,439.75 240.66,438.40 244.23,437.15 248.95,434.51"/>
    </edge>
    <edge id=":V0001_6" function="internal">
        <lane id=":V0001_6_0" index="0" speed="23.50" length="18.33" shape="232.65,442.68 236.88,439.30 239.81,437.02 242.86,434.92 247.49,432.14"/>
        <lane id=":V0001_6_1" index="1" speed="23.50" length="18.33" shape="232.65,442.68 237.16,439.72 240.66,438.36 244.30,437.21 249.21,434.84"/>
    </edge>
    <edge id=":V0001_8" function="internal">
        <lane id=":V0001_8_0" index="0" speed="14.53" length="19.33" shape="234.63,445.20 238.77,441.08 241.53,437.60 244.65,435.38 249.86,435.01"/>
        <lane id=":V0001_8_1" index="1" speed="13.73" length="17.22" shape="234.63,445.20 238.53,441.83 241.43,439.45 244.64,438.19 249.50,438.19"/>
    </edge>
    <edge id=":V0001_10" function="internal">
        <lane id=":V0001_10_0" index="0" speed="6.63" length="15.14" shape="234.63,445.20 239.92,441.45 243.56,439.82 245.56,440.29 245.92,442.87"/>
    </edge>
    <edge id=":V0002_0" function="internal">
        <lane id=":V0002_0_0" index="0" speed="7.50" length="22.25" shape="-3.46,11.96 -4.43,6.36 -1.65,2.13 3.42,0.26 9.33,1.75"/>
        <lane id=":V0002_0_1" index="1" speed="6.07" length="13.89" shape="-0.68,10.38 -1.23,6.96 0.64,4.48 3.93,3.49 7.69,4.50"/>
    </edge>
    <edge id=":V0002_2" function="internal">
        <lane id=":V0002_2_0" index="0" speed="3.67" length="4.74" shape="2.10,8.80 2.21,7.34 2.71,6.58 3.62,6.54 4.93,7.19"/>
    </edge>
    <edge id=":V0004_0" function="internal">
        <lane id=":V0004_0_0" index="0" speed="12.81" length="41.57" shape="749.61,136.67 755.12,136.96 760.99,143.13 767.13,153.81 773.46,167.65"/>
        <lane id=":V0004_0_1" index="1" speed="12.54" length="39.76" shape="749.61,136.67 753.70,137.78 758.70,144.39 764.38,155.20 770.52,168.91"/>
    </edge>
    <edge id=":V0004_2" function="internal">
        <lane id=":V0004_2_0" index="0" speed="14.81" length="70.49" shape="751.22,139.43 758.30,141.53 762.95,155.31 765.70,177.21 767.09,203.67"/>
        <lane id=":V0004_2_1" index="1" speed="14.20" length="64.70" shape="752.83,142.20 757.53,145.11 760.73,158.34 762.74,178.89 763.89,203.78"/>
        <lane id=":V0004_2_2" index="2" speed="14.03" length="63.09" shape="752.83,142.20 755.93,145.80 758.15,159.04 759.67,179.28 760.69,203.88"/>
    </edge>
    <edge id=":V0004_5" function="internal">
        <lane id=":V0004_5_0" index="0" speed="13.74" length="65.99" shape="752.83,142.20 758.76,144.32 760.69,157.81 759.69,178.86 756.85,203.68"/>
        <lane id=":V0004_5_1" index="1" speed="13.49" length="63.56" shape="752.83,142.20 757.03,145.01 758.00,158.34 756.59,178.87 753.68,203.26"/>
        <lane id=":V0004_5_2" index="2" speed="13.30" length="61.69" shape="752.83,142.20 755.30,145.69 755.31,158.85 753.49,178.84 750.51,202.84"/>
    </edge>
    <edge id=":V0005_0" function="internal">
        <lane id=":V0005_0_0" index="0" speed="10.11" length="17.93" shape="538.58,929.40 533.98,932.95 529.77,934.93 525.95,935.35 522.51,934.21"/>
        <lane id=":V0005_0_1" index="1" speed="8.95" length="13.88" shape="536.44,927.03 532.73,929.96 529.45,931.67 526.58,932.17 524.14,931.46"/>
    </edge>
    <edge id=":V0005_2" function="internal">
        <lane id=":V0005_2_0" index="0" speed="3.65" length="4.66" shape="536.44,927.03 535.02,927.23 534.19,926.91 533.95,926.05 534.31,924.65"/>
    </edge>
    <edge id=":V0005_3" function="internal">
        <lane id=":V0005_3_0" index="0" speed="6.09" length="9.06" shape="522.62,918.69 524.19,920.72 525.95,921.60 527.89,921.32 530.03,919.90"/>
        <lane id=":V0005_3_1" index="1" speed="6.95" length="12.16" shape="522.62,918.69 524.93,921.94 527.29,923.62 529.70,923.73 532.17,922.27"/>
        <lane id=":V0005_3_2" index="2" speed="7.73" length="15.36" shape="522.62,918.69 525.67,923.16 528.64,925.64 531.52,926.14 534.31,924.65"/>
    </edge>
    <edge id=":V0005_6" function="internal">
        <lane id=":V0005_6_0" index="0" speed="6.63" length="16.99" shape="522.62,918.69 525.21,923.82 527.01,928.77 526.99,931.87 524.14,931.46"/>
    </edge>
    <edge id=":V0006_0" function="internal">
        <lane id=":V0006_0_0" index="0" speed="7.06" length="16.60" shape="779.98,705.31 791.36,693.23"/>
    </edge>
    <edge id=":V0006_1" function="internal">
        <lane id=":V0006_1_0" index="0" speed="4.20" length="6.30" shape="776.79,705.49 776.58,707.42 775.87,708.40 774.67,708.42 772.96,707.48"/>
    </edge>
    <edge id=":V0006_2" function="internal">
        <lane id=":V0006_2_0" index="0" speed="5.75" length="4.54" shape="762.49,710.66 766.80,709.23"/>
        <lane id=":V0006_2_1" index="1" speed="7.03" length="7.11" shape="764.63,713.04 765.81,712.16 767.65,710.81 769.29,709.40 769.88,708.36"/>
        <lane id=":V0006_2_2" index="2" speed="8.23" length="10.01" shape="764.63,713.04 772.96,707.48"/>
    </edge>
    <edge id=":V0006_5" function="internal">
        <lane id=":V0006_5_0" index="0" speed="15.00" length="33.12" shape="766.78,715.42 791.36,693.23"/>
    </edge>
    <edge id=":V0007_0" function="internal">
        <lane id=":V0007_0_0" index="0" speed="5.46" length="10.15" shape="32.15,646.86 29.12,645.46 27.39,645.59 26.94,647.28 27.79,650.50"/>
    </edge>
    <edge id=":V0007_1" function="internal">
        <lane id=":V0007_1_0" index="0" speed="13.41" length="53.56" shape="32.15,646.86 18.90,637.40 11.14,627.33 10.73,616.78 19.55,605.89"/>
        <lane id=":V0007_1_1" index="1" speed="12.61" length="47.16" shape="33.78,644.11 21.94,635.84 14.70,627.10 13.94,617.94 21.52,608.41"/>
        <lane id=":V0007_1_2" index="2" speed="11.74" length="40.74" shape="35.41,641.36 24.98,634.25 18.30,626.82 17.20,619.05 23.49,610.93"/>
    </edge>
    <edge id=":V0007_4" function="internal">
        <lane id=":V0007_4_0" index="0" speed="9.88" length="27.16" shape="32.26,630.56 26.18,632.25 22.91,636.32 22.45,642.78 24.79,651.62"/>
    </edge>
    <edge id=":V0007_5" function="internal">
        <lane id=":V0007_5_0" index="0" speed="8.66" length="29.24" shape="32.05,627.37 24.00,625.79 18.72,620.97 17.48,614.62 21.52,608.41"/>
        <lane id=":V0007_5_1" index="1" speed="7.44" length="21.10" shape="31.84,624.18 25.91,623.10 21.85,619.78 20.69,615.34 23.49,610.93"/>
    </edge>
    <edge id=":V0007_7" function="internal">
        <lane id=":V0007_7_0" index="0" speed="13.41" length="33.54" shape="30.03,619.28 25.76,624.13 23.97,630.96 24.64,639.75 27.79,650.50"/>
        <lane id=":V0007_7_1" index="1" speed="14.18" length="37.62" shape="28.06,616.75 23.02,622.34 20.80,630.01 21.39,639.77 24.79,651.62"/>
        <lane id=":V0007_7_2" index="2" speed="14.91" length="41.70" shape="26.08,614.23 20.27,620.54 17.62,629.06 18.13,639.80 21.79,652.74"/>
    </edge>
    <edge id=":V0007_10" function="internal">
        <lane id=":V0007_10_0" index="0" speed="4.04" length="6.13" shape="26.08,614.23 24.20,614.37 23.14,613.87 22.90,612.72 23.49,610.93"/>
    </edge>
    <edge id=":V0009_0" function="internal">
        <lane id=":V0009_0_0" index="0" speed="3.66" length="4.67" shape="894.25,-1.33 895.69,-1.35 896.47,-0.92 896.60,-0.03 896.06,1.31"/>
    </edge>
    <edge id=":V0010_0" function="internal">
        <lane id=":V0010_0_0" index="0" speed="11.50" length="43.11" shape="933.84,542.75 936.02,552.17 934.53,561.64 929.37,571.16 920.54,580.75"/>
    </edge>
    <edge id=":V0010_1" function="internal">
        <lane id=":V0010_1_0" index="0" speed="13.90" length="39.65" shape="930.90,544.01 933.29,553.60 931.91,562.37 926.77,570.33 917.87,577.48"/>
    </edge>
    <edge id=":V0010_2" function="internal">
        <lane id=":V0010_2_0" index="0" speed="11.29" length="36.85" shape="930.90,544.01 933.60,554.24 932.00,562.07 926.11,567.26 915.94,569.58"/>
    </edge>
    <edge id=":V0010_3" function="internal">
        <lane id=":V0010_3_0" index="0" speed="11.00" length="41.29" shape="926.74,547.64 934.18,554.91 934.58,562.93 929.52,571.57 920.54,580.75"/>
    </edge>
    <edge id=":V0010_4" function="internal">
        <lane id=":V0010_4_0" index="0" speed="10.31" length="32.97" shape="925.10,550.38 928.57,556.27 928.19,565.13 924.97,574.01 919.91,579.98"/>
        <lane id=":V0010_4_1" index="1" speed="9.52" length="27.94" shape="923.45,553.13 926.59,558.12 925.99,565.25 922.73,572.41 917.87,577.48"/>
    </edge>
    <edge id=":V0010_6" function="internal">
        <lane id=":V0010_6_0" index="0" speed="7.37" length="20.62" shape="923.45,553.13 926.53,556.97 925.53,561.19 921.55,564.70 915.73,566.39"/>
    </edge>
    <edge id=":V0010_7" function="internal">
        <lane id=":V0010_7_0" index="0" speed="5.48" length="12.58" shape="918.53,578.29 915.18,581.50 914.30,582.85 915.87,582.34 919.91,579.98"/>
    </edge>
    <edge id=":V0010_8" function="internal">
        <lane id=":V0010_8_0" index="0" speed="5.60" length="10.84" shape="918.53,578.29 920.92,575.65 921.32,573.85 919.73,572.89 916.15,572.77"/>
    </edge>
    <edge id=":V0010_9" function="internal">
        <lane id=":V0010_9_0" index="0" speed="3.64" length="4.64" shape="918.53,578.29 919.95,578.15 920.76,578.52 920.96,579.38 920.54,580.75"/>
    </edge>
    <edge id=":V0011_0" function="internal">
        <lane id=":V0011_0_0" index="0" speed="5.80" length="9.14" shape="214.79,755.27 212.32,754.24 210.43,754.41 209.14,755.79 208.43,758.37"/>
    </edge>
    <edge id=":V0011_1" function="internal">
        <lane id=":V0011_1_0" index="0" speed="13.50" length="19.11" shape="214.79,755.27 198.35,745.52"/>
        <lane id=":V0011_1_1" index="1" speed="13.50" length="19.11" shape="216.42,752.52 199.99,742.77"/>
        <lane id=":V0011_1_2" index="2" speed="13.50" length="19.11" shape="218.06,749.77 201.62,740.02"/>
    </edge>
    <edge id=":V0011_4" function="internal">
        <lane id=":V0011_4_0" index="0" speed="10.00" length="21.22" shape="211.15,737.33 208.43,758.37"/>
        <lane id=":V0011_4_1" index="1" speed="10.00" length="21.22" shape="207.97,736.92 205.26,757.96"/>
    </edge>
    <edge id=":V0011_6" function="internal">
        <lane id=":V0011_6_0" index="0" speed="6.71" length="12.66" shape="207.97,736.92 207.00,740.97 205.34,743.30 203.01,743.90 199.99,742.77"/>
        <lane id=":V0011_6_1" index="1" speed="5.80" length="9.14" shape="207.97,736.92 207.27,739.51 205.97,740.88 204.09,741.05 201.62,740.02"/>
    </edge>
    <edge id=":V0012_0" function="internal">
        <lane id=":V0012_0_0" index="0" speed="5.33" length="5.75" shape="253.70,432.26 254.55,432.25 255.99,431.35 257.50,430.19 258.55,429.41"/>
    </edge>
    <edge id=":V0012_1" function="internal">
        <lane id=":V0012_1_0" index="0" speed="15.50" length="0.23" shape="250.92,433.83 250.81,433.64"/>
        <lane id=":V0012_1_1" index="1" speed="15.50" length="0.23" shape="248.14,435.41 248.02,435.22"/>
    </edge>
    <edge id=":V0012_3" function="internal">
        <lane id=":V0012_3_0" index="0" speed="5.66" length="6.64" shape="247.66,432.03 249.70,431.07 251.37,430.75 252.66,431.08 253.59,432.06"/>
    </edge>
    <edge id=":V0012_4" function="internal">
        <lane id=":V0012_4_0" index="0" speed="17.00" length="10.60" shape="249.38,434.74 258.55,429.41"/>
    </edge>
    <edge id=":V0013_0" function="internal">
        <lane id=":V0013_0_0" index="0" speed="7.17" length="7.71" shape="727.42,423.58 727.40,425.60 727.92,427.36 728.97,428.86 730.56,430.11"/>
    </edge>
    <edge id=":V0013_1" function="internal">
        <lane id=":V0013_1_0" index="0" speed="20.00" length="14.99" shape="724.25,423.15 722.26,438.01"/>
        <lane id=":V0013_1_1" index="1" speed="20.00" length="14.99" shape="721.08,422.73 719.09,437.59"/>
    </edge>
    <edge id=":V0013_3" function="internal">
        <lane id=":V0013_3_0" index="0" speed="12.50" length="15.29" shape="716.06,425.15 720.18,427.03 723.31,427.63 726.45,428.22 730.56,430.11"/>
        <lane id=":V0013_3_1" index="1" speed="12.50" length="15.29" shape="714.42,427.89 718.53,429.77 721.67,430.37 724.80,430.97 728.92,432.85"/>
        <lane id=":V0013_3_2" index="2" speed="12.50" length="15.29" shape="714.42,427.89 727.28,435.60"/>
    </edge>
    <edge id=":V0013_6" function="internal">
        <lane id=":V0013_6_0" index="0" speed="8.62" length="11.45" shape="714.42,427.89 716.78,429.74 718.35,431.97 719.12,434.59 719.09,437.59"/>
    </edge>
    <edge id=":V0014_0" function="internal">
        <lane id=":V0014_0_0" index="0" speed="10.90" length="28.83" shape="239.33,419.91 244.10,425.92 249.76,428.69 256.30,428.23 263.73,424.54"/>
    </edge>
    <edge id=":V0014_1" function="internal">
        <lane id=":V0014_1_0" index="0" speed="15.00" length="18.20" shape="239.33,419.91 241.95,422.50 245.66,424.56 249.77,427.35 253.61,432.08"/>
        <lane id=":V0014_1_1" index="1" speed="15.00" length="18.20" shape="239.33,419.91 241.54,422.79 244.34,425.49 247.51,428.83 250.82,433.66"/>
        <lane id=":V0014_1_2" index="2" speed="15.00" length="18.20" shape="239.33,419.91 248.04,435.24"/>
    </edge>
    <edge id=":V0014_4" function="internal">
        <lane id=":V0014_4_0" index="0" speed="6.62" length="9.94" shape="245.55,429.09 247.78,428.11 249.86,428.28 251.81,429.61 253.61,432.08"/>
        <lane id=":V0014_4_1" index="1" speed="4.72" length="4.52" shape="247.33,431.75 248.20,431.42 249.07,431.64 249.95,432.38 250.82,433.66"/>
    </edge>
    <edge id=":V0014_6" function="internal">
        <lane id=":V0014_6_0" index="0" speed="22.00" length="17.63" shape="249.12,434.40 263.73,424.54"/>
    </edge>
    <edge id=":V0015_0" function="internal">
        <lane id=":V0015_0_0" index="0" speed="7.27" length="9.55" shape="734.41,589.02 733.44,587.17 731.79,585.92 729.48,585.25 726.50,585.17"/>
        <lane id=":V0015_0_1" index="1" speed="8.65" length="13.89" shape="737.48,588.11 736.03,585.20 733.68,583.21 730.43,582.14 726.29,581.98"/>
    </edge>
    <edge id=":V0015_2" function="internal">
        <lane id=":V0015_2_0" index="0" speed="15.00" length="16.44" shape="737.48,588.11 735.61,583.59 733.63,580.79 731.65,577.98 729.78,573.47"/>
        <lane id=":V0015_2_1" index="1" speed="15.00" length="16.44" shape="737.48,588.11 732.85,572.55"/>
    </edge>
    <edge id=":V0015_4" function="internal">
        <lane id=":V0015_4_0" index="0" speed="17.50" length="13.90" shape="739.73,577.89 736.51,578.61 733.76,579.89 730.64,581.19 726.29,581.98"/>
        <lane id=":V0015_4_1" index="1" speed="17.50" length="13.90" shape="739.73,577.89 726.08,578.79"/>
    </edge>
    <edge id=":V0015_6" function="internal">
        <lane id=":V0015_6_0" index="0" speed="7.25" length="9.50" shape="739.73,577.89 737.35,577.69 735.41,576.73 733.91,575.02 732.85,572.55"/>
    </edge>
    <edge id=":V0016_0" function="internal">
        <lane id=":V0016_0_0" index="0" speed="9.76" length="12.93" shape="787.84,662.55 783.89,665.22 781.09,667.59 779.43,669.66 778.91,671.43"/>
        <lane id=":V0016_0_1" index="1" speed="10.88" length="16.21" shape="786.14,659.83 781.52,663.04 778.24,666.07 776.31,668.89 775.72,671.53"/>
    </edge>
    <edge id=":V0016_2" function="internal">
        <lane id=":V0016_2_0" index="0" speed="20.00" length="17.57" shape="786.14,659.83 771.24,669.14"/>
    </edge>
    <edge id=":V0016_3" function="internal">
        <lane id=":V0016_3_0" index="0" speed="21.00" length="14.37" shape="781.67,657.45 781.30,661.63 780.29,664.44 779.28,667.24 778.91,671.43"/>
        <lane id=":V0016_3_1" index="1" speed="21.00" length="14.37" shape="778.47,657.55 778.10,661.74 777.09,664.54 776.08,667.34 775.72,671.53"/>
    </edge>
    <edge id=":V0016_5" function="internal">
        <lane id=":V0016_5_0" index="0" speed="9.68" length="12.71" shape="775.27,657.65 775.12,661.67 774.40,664.92 773.11,667.42 771.24,669.14"/>
    </edge>
    <edge id=":V0017_0" function="internal">
        <lane id=":V0017_0_0" index="0" speed="5.46" length="9.95" shape="286.96,430.44 284.53,432.57 283.96,434.22 285.25,435.39 288.41,436.08"/>
    </edge>
    <edge id=":V0017_1" function="internal">
        <lane id=":V0017_1_0" index="0" speed="14.00" length="26.48" shape="286.96,430.44 284.02,433.73 280.72,438.75 276.13,444.67 269.31,450.70"/>
        <lane id=":V0017_1_1" index="1" speed="14.00" length="26.48" shape="286.96,430.44 283.70,433.35 279.71,437.50 274.47,442.54 267.47,448.08"/>
        <lane id=":V0017_1_2" index="2" speed="14.00" length="26.48" shape="286.96,430.44 265.62,445.47"/>
    </edge>
    <edge id=":V0017_4" function="internal">
        <lane id=":V0017_4_0" index="0" speed="13.00" length="23.80" shape="264.17,439.82 268.33,439.78 273.53,439.25 280.01,438.87 288.05,439.26"/>
        <lane id=":V0017_4_1" index="1" speed="13.00" length="23.80" shape="264.17,439.82 287.70,442.44"/>
    </edge>
    <edge id=":V0017_6" function="internal">
        <lane id=":V0017_6_0" index="0" speed="6.55" length="4.43" shape="264.17,439.82 268.51,440.73"/>
        <lane id=":V0017_6_1" index="1" speed="5.46" length="4.15" shape="264.17,439.82 267.33,440.52 268.01,441.13"/>
    </edge>
    <edge id=":V0017_8" function="internal">
        <lane id=":V0017_8_0" index="0" speed="6.55" length="10.65" shape="268.51,440.73 269.24,440.88 271.48,442.61 270.89,445.01 267.47,448.08"/>
    </edge>
    <edge id=":V0017_9" function="internal">
        <lane id=":V0017_9_0" index="0" speed="5.46" length="5.80" shape="268.01,441.13 268.62,441.69 268.05,443.34 265.62,445.47"/>
    </edge>
    <edge id=":V0018_0" function="internal">
        <lane id=":V0018_0_0" index="0" speed="6.50" length="12.04" shape="766.75,709.04 770.24,720.56"/>
    </edge>
    <edge id=":V0018_1" function="internal">
        <lane id=":V0018_1_0" index="0" speed="19.50" length="1.13" shape="769.82,708.17 769.52,707.10"/>
        <lane id=":V0018_1_1" index="1" speed="19.50" length="1.13" shape="772.90,707.29 772.59,706.19"/>
    </edge>
    <edge id=":V0018_3" function="internal">
        <lane id=":V0018_3_0" index="0" speed="18.50" length="13.44" shape="781.40,714.81 778.35,716.89 775.82,717.69 773.30,718.48 770.24,720.56"/>
        <lane id=":V0018_3_1" index="1" speed="18.50" length="13.44" shape="781.40,714.81 777.89,716.63 774.75,716.50 771.61,716.37 768.10,718.18"/>
    </edge>
    <edge id=":V0018_5" function="internal">
        <lane id=":V0018_5_0" index="0" speed="7.02" length="14.33" shape="779.24,712.44 776.23,714.29 773.61,714.01 771.37,711.62 769.52,707.10"/>
        <lane id=":V0018_5_1" index="1" speed="5.22" length="7.31" shape="777.09,710.07 775.82,710.73 774.65,710.30 773.57,708.79 772.59,706.19"/>
    </edge>
    <edge id=":V0019_0" function="internal">
        <lane id=":V0019_0_0" index="0" speed="7.49" length="10.48" shape="233.04,617.44 230.16,617.98 227.99,619.21 226.55,621.10 225.81,623.67"/>
        <lane id=":V0019_0_1" index="1" speed="8.84" length="14.94" shape="232.83,614.24 228.78,615.03 225.73,616.80 223.68,619.54 222.64,623.26"/>
    </edge>
    <edge id=":V0019_2" function="internal">
        <lane id=":V0019_2_0" index="0" speed="9.50" length="15.71" shape="232.62,611.05 228.06,612.35 225.35,614.73 222.64,617.11 218.08,618.41"/>
        <lane id=":V0019_2_1" index="1" speed="9.50" length="15.71" shape="232.62,611.05 228.17,611.84 225.25,613.13 222.33,614.43 217.88,615.22"/>
        <lane id=":V0019_2_2" index="2" speed="9.50" length="15.71" shape="232.62,611.05 217.67,612.03"/>
    </edge>
    <edge id=":V0019_5" function="internal">
        <lane id=":V0019_5_0" index="0" speed="8.50" length="17.62" shape="228.07,606.20 225.81,623.67"/>
        <lane id=":V0019_5_1" index="1" speed="8.50" length="17.62" shape="224.89,605.79 222.64,623.26"/>
    </edge>
    <edge id=":V0019_7" function="internal">
        <lane id=":V0019_7_0" index="0" speed="6.50" length="12.80" shape="224.89,605.79 224.02,609.77 222.56,612.67 220.51,614.49 217.88,615.22"/>
        <lane id=":V0019_7_1" index="1" speed="6.50" length="10.48" shape="224.89,605.79 224.16,608.36 222.71,610.26 220.55,611.48 217.67,612.03"/>
    </edge>
    <edge id=":V0020_0" function="internal">
        <lane id=":V0020_0_0" index="0" speed="10.31" length="15.41" shape="441.48,886.12 438.41,884.96 434.96,884.91 431.15,885.98 426.96,888.16"/>
        <lane id=":V0020_0_1" index="1" speed="11.37" length="18.91" shape="443.12,883.36 439.21,881.84 434.93,881.67 430.28,882.88 425.27,885.44"/>
    </edge>
    <edge id=":V0020_2" function="internal">
        <lane id=":V0020_2_0" index="0" speed="15.00" length="17.67" shape="443.12,883.36 438.12,881.56 434.16,881.77 430.20,881.98 425.20,880.17"/>
        <lane id=":V0020_2_1" index="1" speed="15.00" length="17.67" shape="443.12,883.36 438.48,881.19 434.98,880.39 431.48,879.60 426.84,877.42"/>
        <lane id=":V0020_2_2" index="2" speed="15.00" length="17.67" shape="443.12,883.36 428.47,874.67"/>
    </edge>
    <edge id=":V0020_5" function="internal">
        <lane id=":V0020_5_0" index="0" speed="13.50" length="18.98" shape="443.05,878.10 426.96,888.16"/>
        <lane id=":V0020_5_1" index="1" speed="13.50" length="18.98" shape="441.36,875.38 425.27,885.44"/>
    </edge>
    <edge id=":V0020_7" function="internal">
        <lane id=":V0020_7_0" index="0" speed="10.30" length="15.41" shape="441.36,875.38 437.17,877.56 433.35,878.63 429.91,878.58 426.84,877.42"/>
        <lane id=":V0020_7_1" index="1" speed="9.71" length="13.61" shape="441.36,875.38 438.42,876.67 435.29,876.98 431.97,876.32 428.47,874.67"/>
    </edge>
    <edge id=":V0021_0" function="internal">
        <lane id=":V0021_0_0" index="0" speed="7.51" length="7.61" shape="492.62,291.29 495.58,284.28"/>
        <lane id=":V0021_0_1" index="1" speed="8.27" length="9.35" shape="490.97,294.03 497.19,287.04"/>
    </edge>
    <edge id=":V0021_2" function="internal">
        <lane id=":V0021_2_0" index="0" speed="19.50" length="7.60" shape="490.97,294.03 493.14,294.74 494.87,294.50 496.60,294.25 498.76,294.96"/>
        <lane id=":V0021_2_1" index="1" speed="19.50" length="7.60" shape="490.97,294.03 497.12,297.71"/>
    </edge>
    <edge id=":V0021_4" function="internal">
        <lane id=":V0021_4_0" index="0" speed="20.00" length="15.85" shape="483.73,294.86 487.51,292.09 489.65,289.57 491.80,287.05 495.58,284.28"/>
        <lane id=":V0021_4_1" index="1" speed="20.00" length="15.85" shape="485.34,297.63 489.12,294.85 491.26,292.34 493.40,289.82 497.19,287.04"/>
        <lane id=":V0021_4_2" index="2" speed="20.00" length="15.85" shape="485.34,297.63 498.80,289.81"/>
    </edge>
    <edge id=":V0021_7" function="internal">
        <lane id=":V0021_7_0" index="0" speed="9.44" length="12.40" shape="485.34,297.63 488.29,296.35 491.24,295.93 494.18,296.39 497.12,297.71"/>
    </edge>
    <edge id=":V0022_0" function="internal">
        <lane id=":V0022_0_0" index="0" speed="7.50" length="12.02" shape="267.93,451.67 264.79,454.27 262.90,456.76 262.27,459.14 262.90,461.40"/>
    </edge>
    <edge id=":V0022_1" function="internal">
        <lane id=":V0022_1_0" index="0" speed="13.00" length="14.45" shape="266.09,449.05 262.11,451.24 258.78,452.25 255.78,453.02 252.80,454.50"/>
    </edge>
    <edge id=":V0022_2" function="internal">
        <lane id=":V0022_2_0" index="0" speed="10.50" length="17.57" shape="257.18,444.85 259.55,450.04 260.73,454.35 261.57,458.05 262.90,461.40"/>
    </edge>
    <edge id=":V0022_3" function="internal">
        <lane id=":V0022_3_0" index="0" speed="6.79" length="9.19" shape="254.39,446.43 255.35,448.80 255.40,450.93 254.55,452.83 252.80,454.50"/>
    </edge>
    <edge id=":V0023_0" function="internal">
        <lane id=":V0023_0_0" index="0" speed="10.26" length="13.51" shape="774.93,447.63 775.35,451.84 776.32,455.25 777.83,457.85 779.88,459.65"/>
    </edge>
    <edge id=":V0023_1" function="internal">
        <lane id=":V0023_1_0" index="0" speed="21.50" length="19.90" shape="771.73,447.73 772.37,467.62"/>
        <lane id=":V0023_1_1" index="1" speed="21.50" length="19.90" shape="768.53,447.84 769.17,467.73"/>
    </edge>
    <edge id=":V0023_3" function="internal">
        <lane id=":V0023_3_0" index="0" speed="12.50" length="18.76" shape="764.31,450.32 779.88,459.65"/>
        <lane id=":V0023_3_1" index="1" speed="12.50" length="18.76" shape="764.31,450.32 768.71,453.54 771.27,456.36 773.84,459.18 778.24,462.40"/>
        <lane id=":V0023_3_2" index="2" speed="12.50" length="18.76" shape="764.31,450.32 768.55,454.03 770.45,457.73 772.35,461.43 776.59,465.14"/>
    </edge>
    <edge id=":V0023_6" function="internal">
        <lane id=":V0023_6_0" index="0" speed="11.86" length="18.27" shape="762.66,453.07 766.80,456.09 769.80,459.53 771.66,463.37 772.37,467.62"/>
        <lane id=":V0023_6_1" index="1" speed="10.81" length="15.07" shape="761.02,455.81 764.50,458.34 767.02,461.16 768.58,464.29 769.17,467.73"/>
    </edge>
    <edge id=":V0024_0" function="internal">
        <lane id=":V0024_0_0" index="0" speed="9.12" length="12.48" shape="469.78,277.60 471.64,278.05 474.16,277.57 477.35,276.15 481.20,273.79"/>
        <lane id=":V0024_0_1" index="1" speed="10.28" length="16.06" shape="468.14,280.35 470.87,281.18 474.25,280.81 478.29,279.23 482.99,276.44"/>
    </edge>
    <edge id=":V0024_2" function="internal">
        <lane id=":V0024_2_0" index="0" speed="9.50" length="12.89" shape="468.14,280.35 471.90,281.44 474.94,280.69 477.97,279.94 481.73,281.03"/>
        <lane id=":V0024_2_1" index="1" speed="9.50" length="12.89" shape="468.14,280.35 471.50,281.78 474.11,282.06 476.72,282.34 480.09,283.78"/>
        <lane id=":V0024_2_2" index="2" speed="9.50" length="12.89" shape="468.14,280.35 478.44,286.52"/>
    </edge>
    <edge id=":V0024_5" function="internal">
        <lane id=":V0024_5_0" index="0" speed="16.50" length="17.18" shape="468.75,286.06 482.99,276.44"/>
    </edge>
    <edge id=":V0024_6" function="internal">
        <lane id=":V0024_6_0" index="0" speed="9.01" length="12.17" shape="468.75,286.06 472.13,284.11 475.14,283.09 477.80,282.97 480.09,283.78"/>
        <lane id=":V0024_6_1" index="1" speed="8.32" length="10.28" shape="468.75,286.06 470.93,285.03 473.27,284.76 475.78,285.26 478.44,286.52"/>
    </edge>
    <edge id=":V0025_0" function="internal">
        <lane id=":V0025_0_0" index="0" speed="6.51" length="8.82" shape="784.64,581.37 782.29,581.86 780.63,582.99 779.67,584.75 779.41,587.14"/>
        <lane id=":V0025_0_1" index="1" speed="8.01" length="13.85" shape="784.43,578.18 780.73,578.95 778.13,580.72 776.62,583.48 776.21,587.24"/>
    </edge>
    <edge id=":V0025_2" function="internal">
        <lane id=":V0025_2_0" index="0" speed="14.00" length="17.13" shape="784.22,574.98 767.13,576.10"/>
    </edge>
    <edge id=":V0025_3" function="internal">
        <lane id=":V0025_3_0" index="0" speed="19.50" length="17.24" shape="775.66,570.01 776.21,587.24"/>
        <lane id=":V0025_3_1" index="1" speed="19.50" length="17.24" shape="772.46,570.11 773.01,587.34"/>
    </edge>
    <edge id=":V0025_5" function="internal">
        <lane id=":V0025_5_0" index="0" speed="6.60" length="9.08" shape="772.46,570.11 772.19,572.60 771.22,574.43 769.53,575.59 767.13,576.10"/>
    </edge>
    <edge id=":V0026_0" function="internal">
        <lane id=":V0026_0_0" index="0" speed="6.52" length="4.24" shape="784.02,703.83 779.97,705.11"/>
    </edge>
    <edge id=":V0026_1" function="internal">
        <lane id=":V0026_1_0" index="0" speed="12.00" length="10.20" shape="784.02,703.83 782.65,706.41 782.93,709.10 783.14,711.87 781.54,714.67"/>
        <lane id=":V0026_1_1" index="1" speed="12.00" length="10.20" shape="784.02,703.83 782.29,706.06 781.70,708.06 781.12,710.06 779.39,712.30"/>
        <lane id=":V0026_1_2" index="2" speed="12.00" length="10.20" shape="784.02,703.83 777.24,709.94"/>
    </edge>
    <edge id=":V0026_4" function="internal">
        <lane id=":V0026_4_0" index="0" speed="18.50" length="3.08" shape="779.90,702.07 779.97,705.11"/>
        <lane id=":V0026_4_1" index="1" speed="18.50" length="3.08" shape="776.70,702.18 776.78,705.29"/>
    </edge>
    <edge id=":V0026_6" function="internal">
        <lane id=":V0026_6_0" index="0" speed="10.00" length="10.48" shape="776.70,702.18 779.39,712.30"/>