<nodes><node id="V0001" x="246.29666666666665" y="455.7433333333333" type="priority" /><node id="V0002" x="1.5299933333333333" y="18.229733333333336" type="priority" /><node id="V0003" x="168.10399999999998" y="1061.7533333333333" type="priority" /><node id="V0004" x="758.62" y="158.04533333333333" type="priority" /><node id="V0005" x="529.9313333333333" y="948.5933333333334" type="priority" /><node id="V0006" x="776.88" y="726.3266666666666" type="priority" /><node id="V0007" x="10.905266666666668" y="640.5146666666666" type="priority" /><node id="V0008" x="711.84" y="507.6" type="priority" /><node id="V0009" x="896.6733333333334" y="16.471866666666667" type="priority" /><node id="V0010" x="938.9599999999999" y="579.8353333333333" type="priority" /><node id="V0011" x="207.406" y="757.1533333333333" type="priority" /><node id="V0012" x="249.09266666666664" y="454.11800000000005" type="priority" /><node id="V0013" x="719.7466666666667" y="448.50600000000003" type="priority" /><node id="V0014" x="248.98466666666667" y="453.9273333333333" type="priority" /><node id="V0015" x="737.24" y="593.0246666666667" type="priority" /><node id="V0016" x="775.4533333333333" y="682.0533333333333" type="priority" /><node id="V0017" x="269.502" y="458.32800000000003" type="priority" /><node id="V0018" x="776.7933333333333" y="726.0400000000001" type="priority" /><node id="V0019" x="224.25533333333334" y="626.5646666666667" type="priority" /><node id="V0020" x="437.17333333333335" y="893.5400000000001" type="priority" /><node id="V0021" x="492.76666666666665" y="312.52466666666663" type="priority" /><node id="V0022" x="256.63266666666664" y="467.394" type="priority" /><node id="V0023" x="768.9" y="477.952" type="priority" /><node id="V0024" x="474.524" y="301.59599999999995" type="priority" /><node id="V0025" x="772.52" y="590.7180000000001" type="priority" /><node id="V0026" x="776.8666666666667" y="725.9733333333334" type="priority" /><node id="V0027" x="399.674" y="366.6193333333333" type="priority" /><node id="V0028" x="250.26666666666668" y="456.1853333333333" type="priority" /><node id="V0029" x="765.5533333333333" y="688.24" type="priority" /><node id="V0030" x="243.60933333333332" y="476.5693333333333" type="priority" /><node id="V0031" x="342.638" y="618.8246666666668" type="priority" /><node id="V0032" x="483.95133333333337" y="307.24399999999997" type="priority" /><node id="V0033" x="482.5493333333333" y="865.1666666666666" type="priority" /></nodes>