<configuration><input><net-file value="21.net.xml" /><route-files value="21.rou.xml" /></input><time><begin value="0" /></time></configuration>