<edges><edge id="1" from="0" to="3" numLanes="2" speed="13.9" /><edge id="2" from="3" to="0" numLanes="2" speed="13.9" /><edge id="3" from="1" to="2" numLanes="2" speed="13.9" /><edge id="4" from="2" to="1" numLanes="2" speed="13.9" /><edge id="5" from="2" to="3" numLanes="2" speed="13.9" /><edge id="6" from="3" to="2" numLanes="2" speed="13.9" /><edge id="7" from="3" to="4" numLanes="2" speed="13.9" /><edge id="8" from="4" to="3" numLanes="2" speed="13.9" /><edge id="9" from="1" to="6" numLanes="3" speed="13.9" /><edge id="10" from="6" to="1" numLanes="4" speed="13.9" /><edge id="11" from="2" to="7" numLanes="2" speed="13.9" /><edge id="12" from="7" to="2" numLanes="2" speed="13.9" /><edge id="13" from="3" to="8" numLanes="2" speed="13.9" /><edge id="14" from="8" to="3" numLanes="2" speed="13.9" /><edge id="15" from="4" to="9" numLanes="2" speed="13.9" /><edge id="16" from="9" to="4" numLanes="2" speed="13.9" /><edge id="17" from="5" to="6" numLanes="2" speed="13.9" /><edge id="18" from="6" to="5" numLanes="2" speed="13.9" /><edge id="19" from="6" to="7" numLanes="2" speed="13.9" /><edge id="20" from="7" to="6" numLanes="2" speed="13.9" /><edge id="21" from="7" to="8" numLanes="2" speed="13.9" /><edge id="22" from="8" to="7" numLanes="2" speed="13.9" /><edge id="23" from="8" to="9" numLanes="2" speed="13.9" /><edge id="24" from="9" to="8" numLanes="2" speed="13.9" /><edge id="25" from="6" to="10" numLanes="3" speed="13.9" /><edge id="26" from="10" to="6" numLanes="3" speed="13.9" /><edge id="27" from="7" to="11" numLanes="2" speed="13.9" /><edge id="28" from="11" to="7" numLanes="2" speed="13.9" /><edge id="29" from="8" to="12" numLanes="2" speed="13.9" /><edge id="30" from="12" to="8" numLanes="2" speed="13.9" /><edge id="31" from="9" to="13" numLanes="2" speed="13.9" /><edge id="32" from="13" to="9" numLanes="2" speed="13.9" /><edge id="33" from="10" to="11" numLanes="2" speed="13.9" /><edge id="34" from="11" to="10" numLanes="2" speed="13.9" /><edge id="35" from="11" to="12" numLanes="2" speed="13.9" /><edge id="36" from="12" to="11" numLanes="2" speed="13.9" /><edge id="37" from="12" to="13" numLanes="2" speed="13.9" /><edge id="38" from="13" to="12" numLanes="2" speed="13.9" /><edge id="41" from="10" to="15" numLanes="3" speed="13.9" /><edge id="42" from="15" to="10" numLanes="3" speed="13.9" /><edge id="43" from="11" to="16" numLanes="2" speed="13.9" /><edge id="44" from="16" to="11" numLanes="2" speed="13.9" /><edge id="45" from="12" to="17" numLanes="2" speed="13.9" /><edge id="46" from="17" to="12" numLanes="2" speed="13.9" /><edge id="47" from="13" to="18" numLanes="2" speed="13.9" /><edge id="48" from="18" to="13" numLanes="2" speed="13.9" /><edge id="49" from="15" to="16" numLanes="2" speed="13.9" /><edge id="50" from="16" to="15" numLanes="2" speed="13.9" /><edge id="51" from="16" to="17" numLanes="2" speed="13.9" /><edge id="52" from="17" to="16" numLanes="2" speed="13.9" /><edge id="53" from="17" to="18" numLanes="2" speed="13.9" /><edge id="54" from="18" to="17" numLanes="2" speed="13.9" /><edge id="55" from="16" to="19" numLanes="2" speed="13.9" /><edge id="56" from="19" to="16" numLanes="2" speed="13.9" /><edge id="3188b65c-cb85-444b-948e-57334942711e_1" from="12" to="2" numLanes="2" speed="13.9" /><edge id="ab9becb6-d9e3-4926-99a0-05cf48aa2de4_2" from="6" to="13" numLanes="4" speed="13.9" /></edges>