<configuration><input><net-file value="sim_12.net.xml" /><route-files value="sim_12.rou.xml" /></input><time><begin value="0" /></time></configuration>