<edges><edge id="E0015" from="V0005" to="V0009" numLanes="1" speed="7.0" /><edge id="E0019" from="V0009" to="V0001" numLanes="2" speed="24.0" /><edge id="E0027" from="V0008" to="V0004" numLanes="3" speed="17.0" /><edge id="E0031" from="V0003" to="V0010" numLanes="3" speed="5.0" /><edge id="E0033" from="V0008" to="V0001" numLanes="2" speed="19.0" /><edge id="E0047" from="V0011" to="V0004" numLanes="2" speed="23.0" /><edge id="E0051" from="V0012" to="V0005" numLanes="3" speed="23.0" /><edge id="E0052" from="V0013" to="V0006" numLanes="1" speed="11.0" /><edge id="E0054" from="V0001" to="V0014" numLanes="2" speed="20.0" /><edge id="E0056" from="V0014" to="V0007" numLanes="3" speed="13.0" /><edge id="E0058" from="V0006" to="V0015" numLanes="3" speed="17.0" /><edge id="E0060" from="V0015" to="V0010" numLanes="1" speed="16.0" /><edge id="E0062" from="V0006" to="V0016" numLanes="1" speed="8.0" /><edge id="E0064" from="V0016" to="V0003" numLanes="2" speed="26.0" /><edge id="E0069" from="V0002" to="V0017" numLanes="2" speed="22.0" /><edge id="E0070" from="V0005" to="V0018" numLanes="3" speed="20.0" /><edge id="E0072" from="V0018" to="V0007" numLanes="1" speed="7.0" /><edge id="E0075" from="V0018" to="V0012" numLanes="2" speed="14.0" /><edge id="E0074" from="V0004" to="V0019" numLanes="2" speed="22.0" /><edge id="E0076" from="V0019" to="V0001" numLanes="2" speed="26.0" /><edge id="E0079" from="V0019" to="V0008" numLanes="2" speed="10.0" /><edge id="E0080" from="V0020" to="V0011" numLanes="2" speed="13.0" /><edge id="E0081" from="V0004" to="V0020" numLanes="2" speed="16.0" /><edge id="E0083" from="V0020" to="V0012" numLanes="2" speed="11.0" /><edge id="E0082" from="V0011" to="V0021" numLanes="2" speed="13.0" /><edge id="E0084" from="V0021" to="V0002" numLanes="2" speed="11.0" /><edge id="E0085" from="V0017" to="V0021" numLanes="3" speed="22.0" /><edge id="E0087" from="V0021" to="V0004" numLanes="2" speed="7.0" /><edge id="E0089" from="V0005" to="V0022" numLanes="1" speed="13.0" /><edge id="E0091" from="V0022" to="V0013" numLanes="3" speed="12.0" /><edge id="E0090" from="V0003" to="V0023" numLanes="1" speed="7.0" /><edge id="E0092" from="V0023" to="V0013" numLanes="1" speed="23.0" /><edge id="E0093" from="V0016" to="V0023" numLanes="1" speed="25.0" /><edge id="E0094" from="V0013" to="V0024" numLanes="2" speed="22.0" /><edge id="E0096" from="V0024" to="V0011" numLanes="2" speed="24.0" /><edge id="E0097" from="V0017" to="V0024" numLanes="2" speed="8.0" /><edge id="E0098" from="V0005" to="V0025" numLanes="2" speed="6.0" /><edge id="E0100" from="V0025" to="V0014" numLanes="1" speed="9.0" /><edge id="E0101" from="V0001" to="V0025" numLanes="3" speed="21.0" /><edge id="E0103" from="V0025" to="V0018" numLanes="2" speed="14.0" /><edge id="E0102" from="V0002" to="V0026" numLanes="3" speed="12.0" /><edge id="E0104" from="V0026" to="V0015" numLanes="3" speed="12.0" /><edge id="E0105" from="V0010" to="V0026" numLanes="2" speed="15.0" /><edge id="E0107" from="V0026" to="V0017" numLanes="3" speed="22.0" /><edge id="E0106" from="V0015" to="V0027" numLanes="3" speed="7.0" /><edge id="E0108" from="V0027" to="V0003" numLanes="3" speed="22.0" /><edge id="E0109" from="V0010" to="V0027" numLanes="2" speed="6.0" /><edge id="E0111" from="V0027" to="V0016" numLanes="1" speed="11.0" /><edge id="E0110" from="V0014" to="V0028" numLanes="1" speed="9.0" /><edge id="E0112" from="V0028" to="V0019" numLanes="3" speed="21.0" /><edge id="E0113" from="V0001" to="V0028" numLanes="1" speed="10.0" /><edge id="E0115" from="V0028" to="V0020" numLanes="3" speed="7.0" /><edge id="E0114" from="V0012" to="V0029" numLanes="1" speed="5.0" /><edge id="E0116" from="V0029" to="V0022" numLanes="3" speed="12.0" /><edge id="E0117" from="V0024" to="V0029" numLanes="3" speed="25.0" /><edge id="E0119" from="V0029" to="V0005" numLanes="3" speed="23.0" /><edge id="E0118" from="V0022" to="V0030" numLanes="3" speed="15.0" /><edge id="E0120" from="V0030" to="V0003" numLanes="2" speed="24.0" /><edge id="E0121" from="V0023" to="V0030" numLanes="2" speed="6.0" /><edge id="E0123" from="V0030" to="V0005" numLanes="2" speed="26.0" /></edges>