<?xml version="1.0" encoding="UTF-8"?>

<!-- generated on 2023-06-26 02:05:31 by Eclipse SUMO netconvert Version 1.16.0
<configuration xmlns:xsi="http://www.w3.org/2001/XMLSchema-instance" xsi:noNamespaceSchemaLocation="http://sumo.dlr.de/xsd/netconvertConfiguration.xsd">

    <input>
        <node-files value="data/simulationConfigurations/tests/3\3.nod.xml"/>
        <edge-files value="data/simulationConfigurations/tests/3\3.edg.xml"/>
    </input>

    <output>
        <output-file value="data/simulationConfigurations/tests/3\3.net.xml"/>
    </output>

</configuration>
-->

<net version="1.16" junctionCornerDetail="5" limitTurnSpeed="5.50" xmlns:xsi="http://www.w3.org/2001/XMLSchema-instance" xsi:noNamespaceSchemaLocation="http://sumo.dlr.de/xsd/net_file.xsd">

    <location netOffset="-46.03,-26.07" convBoundary="0.00,0.00,937.92,1040.30" origBoundary="46.03,26.07,983.95,1066.37" projParameter="!"/>

    <edge id=":V0001_0" function="internal">
        <lane id=":V0001_0_0" index="0" speed="5.47" length="10.59" shape="915.65,549.75 915.20,546.23 914.17,544.82 912.58,545.52 910.41,548.33"/>
    </edge>
    <edge id=":V0001_1" function="internal">
        <lane id=":V0001_1_0" index="0" speed="12.16" length="31.25" shape="915.65,549.75 914.59,538.33 912.34,530.05 908.89,524.93 904.26,522.96"/>
        <lane id=":V0001_1_1" index="1" speed="13.00" length="35.88" shape="918.84,549.64 917.56,536.95 914.74,527.74 910.39,522.02 904.50,519.77"/>
    </edge>
    <edge id=":V0001_3" function="internal">
        <lane id=":V0001_3_0" index="0" speed="15.48" length="38.36" shape="918.84,549.64 917.62,536.54 914.99,526.49 910.95,519.49 905.51,515.53"/>
    </edge>
    <edge id=":V0001_4" function="internal">
        <lane id=":V0001_4_0" index="0" speed="20.00" length="45.02" shape="919.53,504.46 920.71,512.90 919.13,522.74 914.79,533.98 907.71,546.62"/>
    </edge>
    <edge id=":V0001_5" function="internal">
        <lane id=":V0001_5_0" index="0" speed="10.08" length="30.09" shape="919.53,504.46 920.77,512.83 918.44,518.84 912.84,522.28 904.26,522.96"/>
        <lane id=":V0001_5_1" index="1" speed="9.05" length="24.00" shape="916.49,505.46 917.67,512.21 916.06,516.84 911.67,519.36 904.50,519.77"/>
    </edge>
    <edge id=":V0001_7" function="internal">
        <lane id=":V0001_7_0" index="0" speed="8.14" length="22.51" shape="916.49,505.46 917.85,512.31 916.48,516.26 912.36,517.34 905.51,515.53"/>
    </edge>
    <edge id=":V0001_8" function="internal">
        <lane id=":V0001_8_0" index="0" speed="13.77" length="44.23" shape="909.02,507.13 915.30,513.59 917.18,522.33 914.65,533.34 907.71,546.62"/>
        <lane id=":V0001_8_1" index="1" speed="12.91" length="38.77" shape="907.77,510.12 912.77,515.55 913.98,523.15 911.39,532.93 905.01,544.90"/>
    </edge>
    <edge id=":V0001_10" function="internal">
        <lane id=":V0001_10_0" index="0" speed="6.03" length="13.91" shape="907.77,510.12 910.07,512.96 910.05,516.24 908.06,518.87 904.50,519.77"/>
    </edge>
    <edge id=":V0001_11" function="internal">
        <lane id=":V0001_11_0" index="0" speed="4.68" length="8.56" shape="907.77,510.12 909.23,512.32 909.34,513.96 908.10,515.03 905.51,515.53"/>
    </edge>
    <edge id=":V0002_0" function="internal">
        <lane id=":V0002_0_0" index="0" speed="5.95" length="14.63" shape="42.41,177.94 37.38,176.22 35.38,176.23 36.39,177.96 40.43,181.41"/>
        <lane id=":V0002_0_1" index="1" speed="9.25" length="38.32" shape="44.01,175.14 30.85,170.63 25.60,170.64 28.26,175.17 38.83,184.22"/>
    </edge>
    <edge id=":V0002_2" function="internal">
        <lane id=":V0002_2_0" index="0" speed="8.89" length="32.24" shape="44.01,175.14 33.58,171.97 28.80,172.93 29.67,178.03 36.18,187.27"/>
        <lane id=":V0002_2_1" index="1" speed="9.75" length="39.17" shape="44.01,175.14 31.12,171.18 25.11,172.23 25.97,178.27 33.71,189.31"/>
        <lane id=":V0002_2_2" index="2" speed="10.54" length="46.10" shape="44.01,175.14 28.66,170.40 21.41,171.52 22.27,178.50 31.25,191.34"/>
    </edge>
    <edge id=":V0003_0" function="internal">
        <lane id=":V0003_0_0" index="0" speed="10.42" length="13.87" shape="656.51,942.52 653.78,946.37 651.19,949.13 648.73,950.80 646.40,951.37"/>
    </edge>
    <edge id=":V0003_1" function="internal">
        <lane id=":V0003_1_0" index="0" speed="12.33" length="54.02" shape="653.80,940.80 650.34,939.39 645.33,929.05 639.31,912.47 632.84,892.33"/>
    </edge>
    <edge id=":V0003_2" function="internal">
        <lane id=":V0003_2_0" index="0" speed="7.00" length="21.76" shape="628.97,893.96 633.03,900.88 635.03,902.92 634.96,900.07 632.84,892.33"/>
    </edge>
    <edge id=":V0003_3" function="internal">
        <lane id=":V0003_3_0" index="0" speed="13.53" length="58.30" shape="626.01,895.21 636.51,915.16 644.43,932.05 648.23,943.76 646.36,948.17"/>
    </edge>
    <edge id=":V0003_4" function="internal">
        <lane id=":V0003_4_0" index="0" speed="8.58" length="31.33" shape="622.66,897.28 630.32,905.48 634.57,907.39 635.41,903.01 632.84,892.33"/>
    </edge>
    <edge id=":V0003_5" function="internal">
        <lane id=":V0003_5_0" index="0" speed="13.00" length="59.46" shape="620.19,899.32 634.20,916.95 645.02,932.60 649.97,943.82 646.36,948.17"/>
        <lane id=":V0003_5_1" index="1" speed="12.33" length="53.37" shape="617.72,901.36 630.84,917.59 641.24,931.52 647.04,941.27 646.33,944.97"/>
    </edge>
    <edge id=":V0004_0" function="internal">
        <lane id=":V0004_0_0" index="0" speed="9.11" length="31.04" shape="423.85,228.72 423.55,220.29 427.45,214.30 434.12,211.91 442.14,214.29"/>
        <lane id=":V0004_0_1" index="1" speed="7.86" length="22.65" shape="426.66,226.96 426.51,220.89 429.50,216.72 434.51,215.17 440.44,217.00"/>
    </edge>
    <edge id=":V0004_2" function="internal">
        <lane id=":V0004_2_0" index="0" speed="5.75" length="13.39" shape="426.66,226.96 426.77,222.83 428.10,220.64 430.65,220.38 434.42,222.07"/>
    </edge>
    <edge id=":V0004_3" function="internal">
        <lane id=":V0004_3_0" index="0" speed="6.29" length="11.20" shape="439.81,205.87 437.89,207.71 437.63,209.73 439.05,211.92 442.14,214.29"/>
        <lane id=":V0004_3_1" index="1" speed="7.85" length="18.26" shape="438.09,203.17 434.57,206.37 433.78,209.74 435.74,213.29 440.44,217.00"/>
    </edge>
    <edge id=":V0004_5" function="internal">
        <lane id=":V0004_5_0" index="0" speed="9.81" length="22.55" shape="436.37,200.47 433.01,203.88 432.02,208.34 433.39,213.83 437.13,220.37"/>
    </edge>
    <edge id=":V0004_6" function="internal">
        <lane id=":V0004_6_0" index="0" speed="12.13" length="36.17" shape="411.20,218.63 416.59,211.63 423.55,208.57 432.06,209.46 442.14,214.29"/>
        <lane id=":V0004_6_1" index="1" speed="11.21" length="30.71" shape="414.04,220.10 418.56,214.33 424.46,211.90 431.75,212.79 440.44,217.00"/>
    </edge>
    <edge id=":V0004_8" function="internal">
        <lane id=":V0004_8_0" index="0" speed="9.17" length="26.00" shape="414.04,220.10 418.51,214.83 423.74,213.80 429.22,216.41 434.42,222.07"/>
    </edge>
    <edge id=":V0005_0" function="internal">
        <lane id=":V0005_0_0" index="0" speed="3.98" length="5.83" shape="821.09,764.76 816.08,767.75"/>
    </edge>
    <edge id=":V0005_1" function="internal">
        <lane id=":V0005_1_0" index="0" speed="8.88" length="32.35" shape="818.33,766.40 827.26,778.31 833.35,784.37 836.59,784.59 836.98,778.98"/>
    </edge>
    <edge id=":V0005_2" function="internal">
        <lane id=":V0005_2_0" index="0" speed="15.00" length="59.87" shape="815.58,768.05 824.17,780.34 834.84,795.72 844.26,809.67 849.08,817.65"/>
    </edge>
    <edge id=":V0005_3" function="internal">
        <lane id=":V0005_3_0" index="0" speed="8.70" length="32.54" shape="815.58,768.05 817.79,776.32 814.51,783.50 807.78,787.30 799.63,785.43"/>
    </edge>
    <edge id=":V0005_4" function="internal">
        <lane id=":V0005_4_0" index="0" speed="5.80" length="13.37" shape="807.22,774.16 811.13,776.84 812.99,777.21 812.81,775.28 810.59,771.03"/>
        <lane id=":V0005_4_1" index="1" speed="8.58" length="31.58" shape="805.43,776.82 814.64,783.14 819.03,784.01 818.59,779.43 813.33,769.39"/>
    </edge>
    <edge id=":V0005_6" function="internal">
        <lane id=":V0005_6_0" index="0" speed="11.56" length="49.12" shape="805.43,776.82 821.88,788.04 833.15,792.08 839.24,788.93 840.16,778.59"/>
    </edge>
    <edge id=":V0005_7" function="internal">
        <lane id=":V0005_7_0" index="0" speed="15.00" length="59.42" shape="803.64,779.48 815.47,788.68 830.09,800.28 842.85,811.03 849.08,817.65"/>
    </edge>
    <edge id=":V0005_8" function="internal">
        <lane id=":V0005_8_0" index="0" speed="4.99" length="10.48" shape="803.64,779.48 804.87,782.47 804.62,784.46 802.87,785.45 799.63,785.43"/>
    </edge>
    <edge id=":V0005_9" function="internal">
        <lane id=":V0005_9_0" index="0" speed="10.71" length="42.62" shape="830.05,812.38 831.12,810.19 826.41,804.97 815.91,796.72 799.63,785.43"/>
    </edge>
    <edge id=":V0005_10" function="internal">
        <lane id=":V0005_10_0" index="0" speed="12.70" length="48.02" shape="830.05,812.38 832.12,809.17 830.02,800.93 823.76,787.67 813.33,769.39"/>
    </edge>
    <edge id=":V0005_11" function="internal">
        <lane id=":V0005_11_0" index="0" speed="13.57" length="41.24" shape="830.58,815.53 836.33,812.36 839.84,805.14 841.12,793.89 840.16,778.59"/>
    </edge>
    <edge id=":V0005_12" function="internal">
        <lane id=":V0005_12_0" index="0" speed="10.15" length="19.52" shape="830.58,815.53 837.93,814.62 843.46,814.67 847.18,815.68 849.08,817.65"/>
    </edge>
    <edge id=":V0006_0" function="internal">
        <lane id=":V0006_0_0" index="0" speed="5.57" length="11.61" shape="442.42,546.80 438.92,544.83 437.14,544.74 437.06,546.52 438.71,550.19"/>
    </edge>
    <edge id=":V0006_1" function="internal">
        <lane id=":V0006_1_0" index="0" speed="8.33" length="13.51" shape="442.42,546.80 438.81,544.90 435.56,544.26 432.67,544.88 430.13,546.76"/>
        <lane id=":V0006_1_1" index="1" speed="9.02" length="16.00" shape="442.42,546.80 437.65,544.09 433.63,542.81 430.34,542.97 427.80,544.56"/>
        <lane id=":V0006_1_2" index="2" speed="9.69" length="18.62" shape="442.42,546.80 436.50,543.27 431.70,541.36 428.02,541.06 425.47,542.37"/>
    </edge>
    <edge id=":V0008_0" function="internal">
        <lane id=":V0008_0_0" index="0" speed="5.70" length="8.97" shape="745.54,17.88 744.87,15.38 743.60,14.10 741.74,14.03 739.28,15.18"/>
        <lane id=":V0008_0_1" index="1" speed="7.32" length="15.70" shape="748.65,16.92 747.48,12.64 745.24,10.47 741.93,10.42 737.56,12.48"/>
        <lane id=":V0008_0_2" index="2" speed="8.05" length="19.27" shape="748.65,16.92 747.21,11.15 744.60,8.03 740.81,7.58 735.84,9.79"/>
    </edge>
    <edge id=":V0008_3" function="internal">
        <lane id=":V0008_3_0" index="0" speed="4.89" length="9.49" shape="748.65,16.92 749.49,14.12 750.80,12.86 752.59,13.16 754.86,15.01"/>
    </edge>
    <edge id=":V0009_0" function="internal">
        <lane id=":V0009_0_0" index="0" speed="5.87" length="13.82" shape="927.58,1010.63 929.70,1015.10 931.14,1016.43 931.92,1014.62 932.02,1009.68"/>
        <lane id=":V0009_0_1" index="1" speed="7.44" length="23.40" shape="927.58,1010.63 931.21,1018.33 933.70,1020.72 935.03,1017.80 935.22,1009.57"/>
    </edge>
    <edge id=":V0010_0" function="internal">
        <lane id=":V0010_0_0" index="0" speed="10.00" length="38.05" shape="59.08,957.98 48.62,956.10 42.39,950.69 40.71,942.47 43.89,932.17"/>
        <lane id=":V0010_0_1" index="1" speed="9.92" length="30.70" shape="58.58,954.78 50.19,953.24 45.29,948.81 44.05,942.11 46.66,933.77"/>
    </edge>
    <edge id=":V0010_2" function="internal">
        <lane id=":V0010_2_0" index="0" speed="5.41" length="10.07" shape="53.78,937.87 51.81,940.45 51.64,942.08 53.25,942.77 56.66,942.52"/>
        <lane id=":V0010_2_1" index="1" speed="6.56" length="15.64" shape="53.78,937.87 50.49,942.09 49.95,944.80 52.17,946.00 57.16,945.68"/>
    </edge>
    <edge id=":V0011_0" function="internal">
        <lane id=":V0011_0_0" index="0" speed="11.47" length="14.61" shape="461.46,350.08 459.99,346.63 457.90,343.75 455.19,341.45 451.86,339.73"/>
    </edge>
    <edge id=":V0011_1" function="internal">
        <lane id=":V0011_1_0" index="0" speed="23.50" length="17.19" shape="461.46,350.08 456.37,333.66"/>
        <lane id=":V0011_1_1" index="1" speed="23.50" length="17.19" shape="464.52,349.13 459.43,332.72"/>
    </edge>
    <edge id=":V0011_3" function="internal">
        <lane id=":V0011_3_0" index="0" speed="13.00" length="17.19" shape="467.85,346.04 451.86,339.73"/>
        <lane id=":V0011_3_1" index="1" speed="13.00" length="17.19" shape="469.02,343.07 453.04,336.75"/>
    </edge>
    <edge id=":V0011_5" function="internal">
        <lane id=":V0011_5_0" index="0" speed="11.47" length="14.61" shape="469.02,343.07 465.69,341.34 462.99,339.04 460.90,336.17 459.43,332.72"/>
    </edge>
    <edge id=":V0012_0" function="internal">
        <lane id=":V0012_0_0" index="0" speed="6.51" length="6.30" shape="790.44,731.44 796.40,729.40"/>
        <lane id=":V0012_0_1" index="1" speed="6.47" length="6.23" shape="787.73,729.73 793.78,731.23"/>
    </edge>
    <edge id=":V0012_2" function="internal">
        <lane id=":V0012_2_0" index="0" speed="9.50" length="4.10" shape="787.73,729.73 785.54,733.19"/>
    </edge>
    <edge id=":V0012_3" function="internal">
        <lane id=":V0012_3_0" index="0" speed="17.00" length="11.85" shape="787.21,721.83 789.60,724.38 791.81,725.61 794.01,726.84 796.40,729.40"/>
        <lane id=":V0012_3_1" index="1" speed="17.00" length="11.85" shape="784.59,723.66 786.98,726.22 789.18,727.45 791.38,728.68 793.78,731.23"/>
        <lane id=":V0012_3_2" index="2" speed="17.00" length="11.85" shape="784.59,723.66 791.15,733.06"/>
    </edge>
    <edge id=":V0012_6" function="internal">
        <lane id=":V0012_6_0" index="0" speed="8.00" length="10.19" shape="784.59,723.66 786.02,726.22 786.66,728.67 786.50,730.99 785.54,733.19"/>
    </edge>
    <edge id=":V0013_0" function="internal">
        <lane id=":V0013_0_0" index="0" speed="17.00" length="25.94" shape="552.31,632.46 550.08,627.46 546.31,620.91 542.03,614.73 538.30,610.85"/>
    </edge>
    <edge id=":V0013_1" function="internal">
        <lane id=":V0013_1_0" index="0" speed="22.50" length="26.24" shape="552.31,632.46 550.42,628.04 547.47,622.25 544.25,615.56 541.52,608.45"/>
        <lane id=":V0013_1_1" index="1" speed="22.50" length="26.24" shape="552.31,632.46 544.58,607.50"/>
    </edge>
    <edge id=":V0013_3" function="internal">
        <lane id=":V0013_3_0" index="0" speed="11.50" length="25.96" shape="555.53,630.06 548.90,624.43 544.45,618.81 541.24,614.02 538.30,610.85"/>
    </edge>
    <edge id=":V0013_4" function="internal">
        <lane id=":V0013_4_0" index="0" speed="17.00" length="25.37" shape="557.31,627.40 550.93,622.89 546.68,618.94 543.79,614.47 541.52,608.45"/>
        <lane id=":V0013_4_1" index="1" speed="17.00" length="23.23" shape="559.09,624.74 553.28,620.75 549.43,617.35 546.77,613.34 544.58,607.50"/>
    </edge>
    <edge id=":V0014_0" function="internal">
        <lane id=":V0014_0_0" index="0" speed="7.15" length="9.45" shape="809.52,523.58 808.87,521.55 807.49,520.03 805.36,519.02 802.49,518.52"/>
    </edge>
    <edge id=":V0014_1" function="internal">
        <lane id=":V0014_1_0" index="0" speed="9.00" length="16.36" shape="809.52,523.58 807.57,507.33"/>
    </edge>
    <edge id=":V0014_2" function="internal">
        <lane id=":V0014_2_0" index="0" speed="16.50" length="11.10" shape="813.80,516.16 802.73,515.33"/>
        <lane id=":V0014_2_1" index="1" speed="16.50" length="11.10" shape="814.04,512.97 802.97,512.14"/>
    </edge>
    <edge id=":V0014_4" function="internal">
        <lane id=":V0014_4_0" index="0" speed="7.13" length="9.42" shape="814.04,512.97 811.44,512.45 809.50,511.34 808.21,509.63 807.57,507.33"/>
    </edge>
    <edge id=":V0015_0" function="internal">
        <lane id=":V0015_0_0" index="0" speed="6.89" length="9.26" shape="382.71,597.21 381.07,599.41 380.34,601.52 380.53,603.55 381.64,605.50"/>
    </edge>
    <edge id=":V0015_1" function="internal">
        <lane id=":V0015_1_0" index="0" speed="16.50" length="17.49" shape="380.38,595.02 376.15,598.79 372.40,601.18 369.12,603.06 366.32,605.31"/>
    </edge>
    <edge id=":V0015_2" function="internal">
        <lane id=":V0015_2_0" index="0" speed="9.50" length="16.86" shape="370.99,592.60 381.64,605.50"/>
        <lane id=":V0015_2_1" index="1" speed="9.50" length="16.86" shape="368.52,594.64 379.18,607.54"/>
        <lane id=":V0015_2_2" index="2" speed="9.50" length="16.86" shape="368.52,594.64 371.33,598.82 372.62,602.11 373.91,605.39 376.71,609.57"/>
    </edge>
    <edge id=":V0015_5" function="internal">
        <lane id=":V0015_5_0" index="0" speed="7.00" length="9.59" shape="366.06,596.68 367.54,599.00 368.08,601.21 367.67,603.31 366.32,605.31"/>
    </edge>
    <edge id=":V0016_0" function="internal">
        <lane id=":V0016_0_0" index="0" speed="8.47" length="11.96" shape="601.07,849.26 602.66,851.14 604.99,852.27 608.05,852.67 611.86,852.34"/>
    </edge>
    <edge id=":V0016_1" function="internal">
        <lane id=":V0016_1_0" index="0" speed="17.00" length="11.57" shape="601.07,849.26 602.96,851.71 605.02,853.18 607.14,854.79 609.27,857.66"/>
        <lane id=":V0016_1_1" index="1" speed="17.00" length="11.57" shape="601.07,849.26 606.46,859.19"/>
    </edge>
    <edge id=":V0016_3" function="internal">
        <lane id=":V0016_3_0" index="0" speed="18.00" length="13.58" shape="598.48,854.59 611.86,852.34"/>
    </edge>
    <edge id=":V0016_4" function="internal">
        <lane id=":V0016_4_0" index="0" speed="7.75" length="9.89" shape="598.48,854.59 600.86,854.56 602.98,855.32 604.85,856.86 606.46,859.19"/>
    </edge>
    <edge id=":V0017_0" function="internal">
        <lane id=":V0017_0_0" index="0" speed="6.14" length="9.06" shape="311.57,392.44 313.79,393.71 315.76,393.86 317.48,392.89 318.96,390.81"/>
        <lane id=":V0017_0_1" index="1" speed="7.71" length="14.95" shape="309.60,394.97 313.26,397.05 316.52,397.30 319.37,395.71 321.81,392.28"/>
    </edge>
    <edge id=":V0017_2" function="internal">
        <lane id=":V0017_2_0" index="0" speed="15.00" length="19.15" shape="309.60,394.97 314.39,398.06 318.07,399.53 321.76,401.01 326.54,404.10"/>
        <lane id=":V0017_2_1" index="1" speed="15.00" length="19.15" shape="309.60,394.97 324.58,406.62"/>
    </edge>
    <edge id=":V0017_4" function="internal">
        <lane id=":V0017_4_0" index="0" speed="22.00" length="16.32" shape="311.49,405.32 318.96,390.81"/>
        <lane id=":V0017_4_1" index="1" speed="22.00" length="16.32" shape="314.34,406.79 321.81,392.28"/>
        <lane id=":V0017_4_2" index="2" speed="22.00" length="16.32" shape="317.18,408.25 324.65,393.74"/>
    </edge>
    <edge id=":V0017_7" function="internal">
        <lane id=":V0017_7_0" index="0" speed="6.14" length="9.06" shape="317.18,408.25 318.66,406.17 320.39,405.21 322.36,405.36 324.58,406.62"/>
    </edge>
    <edge id=":V0018_0" function="internal">
        <lane id=":V0018_0_0" index="0" speed="5.65" length="8.89" shape="791.95,740.05 790.54,731.27"/>
        <lane id=":V0018_0_1" index="1" speed="6.32" length="11.44" shape="794.69,738.40 791.99,734.07 789.95,731.15 788.56,729.64 787.84,729.56"/>
    </edge>
    <edge id=":V0018_2" function="internal">
        <lane id=":V0018_2_0" index="0" speed="13.50" length="19.96" shape="797.44,736.75 787.15,719.65"/>
    </edge>
    <edge id=":V0018_3" function="internal">
        <lane id=":V0018_3_0" index="0" speed="14.00" length="11.64" shape="796.78,721.45 790.54,731.27"/>
        <lane id=":V0018_3_1" index="1" speed="14.00" length="11.64" shape="794.08,719.73 787.84,729.56"/>
    </edge>
    <edge id=":V0018_5" function="internal">
        <lane id=":V0018_5_0" index="0" speed="5.74" length="9.18" shape="794.08,719.73 792.32,721.81 790.58,722.49 788.86,721.77 787.15,719.65"/>
    </edge>
    <edge id=":V0019_0" function="internal">
        <lane id=":V0019_0_0" index="0" speed="15.50" length="22.16" shape="794.29,450.44 794.01,443.93 794.57,439.32 795.14,434.87 794.92,428.81"/>
        <lane id=":V0019_0_1" index="1" speed="15.50" length="22.16" shape="794.29,450.44 794.49,443.72 796.14,439.00 797.81,434.50 798.09,428.43"/>
    </edge>
    <edge id=":V0019_2" function="internal">
        <lane id=":V0019_2_0" index="0" speed="7.38" length="18.11" shape="797.47,450.06 797.48,444.43 799.19,441.47 802.59,441.18 807.70,443.58"/>
        <lane id=":V0019_2_1" index="1" speed="5.53" length="9.47" shape="800.64,449.68 800.65,446.73 801.54,445.18 803.33,445.04 806.00,446.29"/>
    </edge>
    <edge id=":V0019_4" function="internal">
        <lane id=":V0019_4_0" index="0" speed="5.53" length="9.47" shape="789.56,432.21 792.23,433.46 794.02,433.31 794.91,431.76 794.92,428.81"/>
    </edge>
    <edge id=":V0019_5" function="internal">
        <lane id=":V0019_5_0" index="0" speed="24.00" length="21.40" shape="789.56,432.21 807.70,443.58"/>
        <lane id=":V0019_5_1" index="1" speed="24.00" length="21.40" shape="787.86,434.92 806.00,446.29"/>
    </edge>
    <edge id=":V0020_0" function="internal">
        <lane id=":V0020_0_0" index="0" speed="5.48" length="10.70" shape="558.57,385.33 555.11,384.31 553.40,384.67 553.45,386.42 555.24,389.54"/>
    </edge>
    <edge id=":V0020_1" function="internal">
        <lane id=":V0020_1_0" index="0" speed="10.00" length="34.08" shape="559.74,382.35 528.05,369.83"/>
        <lane id=":V0020_1_1" index="1" speed="10.00" length="34.08" shape="560.92,379.38 529.22,366.85"/>
    </edge>
    <edge id=":V0020_3" function="internal">
        <lane id=":V0020_3_0" index="0" speed="13.50" length="35.05" shape="535.18,360.81 555.24,389.54"/>
        <lane id=":V0020_3_1" index="1" speed="13.50" length="35.05" shape="532.55,362.64 552.61,391.38"/>
    </edge>
    <edge id=":V0020_5" function="internal">
        <lane id=":V0020_5_0" index="0" speed="5.48" length="4.19" shape="532.55,362.64 534.34,365.77 534.36,366.35"/>
    </edge>
    <edge id=":V0020_6" function="internal">
        <lane id=":V0020_6_0" index="0" speed="5.48" length="6.51" shape="534.36,366.35 534.39,367.51 532.68,367.87 529.22,366.85"/>
    </edge>
    <edge id=":V0021_0" function="internal">
        <lane id=":V0021_0_0" index="0" speed="12.00" length="18.28" shape="374.92,309.33 357.91,302.61"/>
        <lane id=":V0021_0_1" index="1" speed="12.00" length="18.28" shape="376.09,306.35 359.09,299.63"/>
    </edge>
    <edge id=":V0021_2" function="internal">
        <lane id=":V0021_2_0" index="0" speed="6.30" length="9.04" shape="376.09,306.35 373.91,305.10 372.73,303.48 372.55,301.48 373.37,299.10"/>
    </edge>
    <edge id=":V0021_3" function="internal">
        <lane id=":V0021_3_0" index="0" speed="6.30" length="9.04" shape="360.64,309.85 361.46,307.48 361.28,305.48 360.10,303.85 357.91,302.61"/>
        <lane id=":V0021_3_1" index="1" speed="7.83" length="14.58" shape="363.48,311.32 364.80,307.49 364.51,304.26 362.61,301.64 359.09,299.63"/>
    </edge>
    <edge id=":V0021_5" function="internal">
        <lane id=":V0021_5_0" index="0" speed="14.50" length="15.60" shape="366.33,312.78 368.00,308.45 368.43,305.21 368.86,301.97 370.52,297.64"/>
        <lane id=":V0021_5_1" index="1" speed="14.50" length="15.60" shape="366.33,312.78 373.37,299.10"/>
    </edge>
    <edge id=":V0022_0" function="internal">
        <lane id=":V0022_0_0" index="0" speed="7.97" length="14.34" shape="776.46,769.95 774.01,769.21 771.36,770.10 768.51,772.63 765.44,776.80"/>
    </edge>
    <edge id=":V0022_1" function="internal">
        <lane id=":V0022_1_0" index="0" speed="12.50" length="18.24" shape="776.46,769.95 772.95,768.81 768.71,768.62 763.77,767.97 758.21,765.46"/>
        <lane id=":V0022_1_1" index="1" speed="12.50" length="18.24" shape="776.46,769.95 773.18,768.36 769.46,767.20 765.13,765.63 759.98,762.79"/>
        <lane id=":V0022_1_2" index="2" speed="12.50" length="18.24" shape="776.46,769.95 761.76,760.13"/>
    </edge>
    <edge id=":V0022_4" function="internal">
        <lane id=":V0022_4_0" index="0" speed="13.50" length="16.73" shape="774.40,762.67 765.44,776.80"/>
        <lane id=":V0022_4_1" index="1" speed="13.50" length="16.73" shape="771.70,760.96 762.74,775.08"/>
        <lane id=":V0022_4_2" index="2" speed="13.50" length="16.73" shape="769.00,759.25 760.04,773.37"/>
    </edge>
    <edge id=":V0022_7" function="internal">
        <lane id=":V0022_7_0" index="0" speed="7.06" length="11.02" shape="769.00,759.25 766.84,761.99 764.61,763.49 762.33,763.76 759.98,762.79"/>
        <lane id=":V0022_7_1" index="1" speed="6.23" length="8.34" shape="769.00,759.25 767.59,760.81 765.92,761.48 763.97,761.25 761.76,760.13"/>
    </edge>
    <edge id=":V0023_0" function="internal">
        <lane id=":V0023_0_0" index="0" speed="15.00" length="14.46" shape="621.75,856.53 617.47,842.72"/>
    </edge>
    <edge id=":V0023_1" function="internal">
        <lane id=":V0023_1_0" index="0" speed="6.24" length="9.05" shape="621.75,856.53 621.35,854.04 621.89,852.11 623.36,850.77 625.77,850.00"/>
    </edge>
    <edge id=":V0023_2" function="internal">
        <lane id=":V0023_2_0" index="0" speed="6.90" length="11.32" shape="614.27,851.93 616.63,850.99 617.94,849.15 618.22,846.39 617.47,842.72"/>
    </edge>
    <edge id=":V0023_3" function="internal">
        <lane id=":V0023_3_0" index="0" speed="15.50" length="11.93" shape="614.27,851.93 617.23,850.93 619.37,849.45 621.70,847.94 625.24,846.84"/>
        <lane id=":V0023_3_1" index="1" speed="15.50" length="11.93" shape="614.27,851.93 625.77,850.00"/>
    </edge>
    <edge id=":V0024_0" function="internal">
        <lane id=":V0024_0_0" index="0" speed="23.00" length="28.37" shape="532.10,578.05 523.71,550.96"/>
        <lane id=":V0024_0_1" index="1" speed="23.00" length="28.37" shape="535.16,577.11 526.76,550.01"/>
    </edge>
    <edge id=":V0024_2" function="internal">
        <lane id=":V0024_2_0" index="0" speed="6.65" length="4.55" shape="535.16,577.11 534.19,572.67"/>
        <lane id=":V0024_2_1" index="1" speed="5.47" length="4.17" shape="535.16,577.11 534.43,573.66 534.62,573.04"/>
    </edge>
    <edge id=":V0024_8" function="internal">
        <lane id=":V0024_8_0" index="0" speed="6.65" length="11.90" shape="534.19,572.67 533.93,571.50 534.60,568.69 537.16,568.68 541.61,571.48"/>
    </edge>
    <edge id=":V0024_9" function="internal">
        <lane id=":V0024_9_0" index="0" speed="5.47" length="6.37" shape="534.62,573.04 534.93,571.99 536.67,572.11 539.64,574.01"/>
    </edge>
    <edge id=":V0024_4" function="internal">
        <lane id=":V0024_4_0" index="0" speed="5.47" length="10.54" shape="519.22,554.06 522.19,555.96 523.93,556.08 524.43,554.41 523.71,550.96"/>
    </edge>
    <edge id=":V0024_5" function="internal">
        <lane id=":V0024_5_0" index="0" speed="16.50" length="28.52" shape="519.22,554.06 524.77,557.75 530.13,560.52 536.13,563.79 543.57,568.96"/>
        <lane id=":V0024_5_1" index="1" speed="16.50" length="28.52" shape="517.26,556.58 522.81,560.27 528.17,563.05 534.16,566.32 541.61,571.48"/>
        <lane id=":V0024_5_2" index="2" speed="16.50" length="28.52" shape="517.26,556.58 539.64,574.01"/>
    </edge>
    <edge id=":V0025_0" function="internal">
        <lane id=":V0025_0_0" index="0" speed="5.46" length="10.12" shape="825.78,685.76 825.06,682.52 823.89,681.23 822.28,681.89 820.22,684.50"/>
        <lane id=":V0025_0_1" index="1" speed="7.52" length="20.82" shape="828.96,685.38 827.46,678.71 825.06,676.06 821.74,677.42 817.52,682.78"/>
    </edge>
    <edge id=":V0025_2" function="internal">
        <lane id=":V0025_2_0" index="0" speed="7.50" length="25.95" shape="828.96,685.38 825.86,659.61"/>
    </edge>
    <edge id=":V0025_3" function="internal">
        <lane id=":V0025_3_0" index="0" speed="17.50" length="26.20" shape="836.83,664.30 832.03,670.93 827.91,675.37 824.09,679.33 820.22,684.50"/>
        <lane id=":V0025_3_1" index="1" speed="17.50" length="26.20" shape="834.13,662.59 829.33,669.21 825.21,673.66 821.39,677.62 817.52,682.78"/>
    </edge>
    <edge id=":V0025_5" function="internal">
        <lane id=":V0025_5_0" index="0" speed="5.46" length="4.15" shape="831.42,660.87 829.37,663.48 828.60,663.79"/>
    </edge>
    <edge id=":V0025_6" function="internal">
        <lane id=":V0025_6_0" index="0" speed="5.46" length="5.97" shape="828.60,663.79 827.76,664.14 826.59,662.85 825.86,659.61"/>
    </edge>
    <edge id=":V0026_0" function="internal">
        <lane id=":V0026_0_0" index="0" speed="5.81" length="9.14" shape="270.85,471.37 272.83,473.18 274.66,473.66 276.34,472.80 277.89,470.61"/>
        <lane id=":V0026_0_1" index="1" speed="7.48" length="16.04" shape="268.38,473.41 271.85,476.58 275.06,477.42 278.02,475.92 280.73,472.07"/>
    </edge>
    <edge id=":V0026_2" function="internal">
        <lane id=":V0026_2_0" index="0" speed="12.00" length="23.05" shape="265.92,475.44 271.03,480.07 275.57,482.10 280.10,484.14 285.22,488.76"/>
        <lane id=":V0026_2_1" index="1" speed="12.00" length="23.05" shape="265.92,475.44 270.59,480.31 274.33,483.12 278.08,485.93 282.75,490.80"/>
        <lane id=":V0026_2_2" index="2" speed="12.00" length="23.05" shape="265.92,475.44 280.28,492.84"/>
    </edge>
    <edge id=":V0026_5" function="internal">
        <lane id=":V0026_5_0" index="0" speed="18.50" length="22.56" shape="270.40,492.13 280.73,472.07"/>
        <lane id=":V0026_5_1" index="1" speed="18.50" length="22.56" shape="273.25,493.60 283.58,473.54"/>
    </edge>
    <edge id=":V0026_7" function="internal">