<nodes><node id="V0001" x="965.3933333333333" y="545.362" type="priority" /><node id="V0002" x="46.03006666666667" y="182.102" type="priority" /><node id="V0003" x="696.34" y="969.4" type="priority" /><node id="V0004" x="468.34133333333335" y="233.60066666666668" type="priority" /><node id="V0005" x="892.12" y="840.62" type="priority" /><node id="V0006" x="475.2426666666667" y="562.1266666666667" type="priority" /><node id="V0007" x="702.66" y="525.602" type="priority" /><node id="V0008" x="794.26" y="26.075" type="priority" /><node id="V0009" x="983.9466666666667" y="1066.3733333333334" type="priority" /><node id="V0010" x="86.038" y="976.2666666666667" type="priority" /><node id="V0011" x="509.07666666666665" y="365.0613333333333" type="priority" /><node id="V0012" x="832.36" y="755.0266666666666" type="priority" /><node id="V0013" x="594.9146666666667" y="642.0733333333334" type="priority" /><node id="V0014" x="855.6533333333333" y="537.1086666666666" type="priority" /><node id="V0015" x="413.8726666666667" y="627.428" type="priority" /><node id="V0016" x="648.6713333333333" y="881.5866666666666" type="priority" /><node id="V0017" x="366.468" y="431.5013333333334" type="priority" /><node id="V0018" x="836.6133333333333" y="748.3266666666666" type="priority" /><node id="V0019" x="847.7866666666666" y="471.5946666666667" type="priority" /><node id="V0020" x="579.56" y="392.91066666666666" type="priority" /><node id="V0021" x="418.992" y="329.46666666666664" type="priority" /><node id="V0022" x="812.0066666666667" y="787.1" type="priority" /><node id="V0023" x="668.12" y="878.3133333333334" type="priority" /><node id="V0024" x="581.5326666666666" y="598.888" type="priority" /><node id="V0025" x="873.9599999999999" y="689.4666666666667" type="priority" /><node id="V0026" x="322.53333333333336" y="516.8486666666666" type="priority" /><node id="V0027" x="626.8433333333334" y="885.26" type="priority" /><node id="V0028" x="851.2266666666667" y="500.252" type="priority" /><node id="V0029" x="815.76" y="781.1866666666666" type="priority" /><node id="V0030" x="764.42" y="862.1066666666667" type="priority" /></nodes>