<configuration><input><net-file value="3.net.xml" /><route-files value="3.rou.xml" /></input><time><begin value="0" /></time></configuration>