<nodes><node id="V0001" x="691.5266666666666" y="906.2800000000001" type="priority" /><node id="V0002" x="992.38" y="1048.86" type="priority" /><node id="V0003" x="431.7513333333334" y="1011.5866666666666" type="priority" /><node id="V0004" x="827.3066666666667" y="260.29466666666667" type="priority" /><node id="V0005" x="572.6740000000001" y="724.9599999999999" type="priority" /><node id="V0006" x="125.232" y="793.84" type="priority" /><node id="V0007" x="482.40400000000005" y="517.2033333333334" type="priority" /><node id="V0008" x="106.25333333333333" y="126.762" type="priority" /><node id="V0009" x="632.474" y="392.0693333333333" type="priority" /><node id="V0010" x="1021.3866666666667" y="73.7" type="priority" /><node id="V0011" x="842.5733333333334" y="333.2286666666667" type="priority" /><node id="V0012" x="633.8860000000001" y="404.36733333333336" type="priority" /><node id="V0013" x="481.86466666666666" y="517.6206666666667" type="priority" /><node id="V0014" x="617.7526666666668" y="658.306" type="priority" /><node id="V0015" x="478.4493333333333" y="514.0666666666667" type="priority" /><node id="V0016" x="653.7180000000001" y="577.0626666666667" type="priority" /><node id="V0017" x="617.9553333333333" y="659.2353333333334" type="priority" /><node id="V0018" x="654.9373333333333" y="587.6786666666667" type="priority" /><node id="V0019" x="615.0193333333334" y="663.4966666666667" type="priority" /><node id="V0020" x="612.3080000000001" y="652.63" type="priority" /><node id="V0021" x="618.2433333333333" y="658.8173333333333" type="priority" /><node id="V0022" x="617.508" y="658.77" type="priority" /><node id="V0023" x="669.2866666666666" y="712.6533333333333" type="priority" /><node id="V0024" x="612.054" y="653.0946666666666" type="priority" /><node id="V0025" x="669.2066666666667" y="711.9466666666667" type="priority" /><node id="V0026" x="656.6973333333333" y="603.0053333333333" type="priority" /></nodes>