<?xml version="1.0" encoding="UTF-8"?>

<!-- generated on 2023-06-26 02:05:25 by Eclipse SUMO netconvert Version 1.16.0
<configuration xmlns:xsi="http://www.w3.org/2001/XMLSchema-instance" xsi:noNamespaceSchemaLocation="http://sumo.dlr.de/xsd/netconvertConfiguration.xsd">

    <input>
        <node-files value="data/simulationConfigurations/tests/16\16.nod.xml"/>
        <edge-files value="data/simulationConfigurations/tests/16\16.edg.xml"/>
    </input>

    <output>
        <output-file value="data/simulationConfigurations/tests/16\16.net.xml"/>
    </output>

</configuration>
-->

<net version="1.16" junctionCornerDetail="5" limitTurnSpeed="5.50" xmlns:xsi="http://www.w3.org/2001/XMLSchema-instance" xsi:noNamespaceSchemaLocation="http://sumo.dlr.de/xsd/net_file.xsd">

    <location netOffset="-106.25,-73.70" convBoundary="0.00,0.00,915.13,975.16" origBoundary="106.25,73.70,1021.39,1048.86" projParameter="!"/>

    <edge id=":V0001_0" function="internal">
        <lane id=":V0001_0_0" index="0" speed="8.20" length="8.59" shape="589.03,823.23 589.52,826.00 590.26,828.18 591.27,829.75 592.55,830.72"/>
        <lane id=":V0001_0_1" index="1" speed="9.50" length="11.82" shape="585.85,823.59 586.53,827.19 587.64,830.06 589.19,832.20 591.18,833.61"/>
    </edge>
    <edge id=":V0001_2" function="internal">
        <lane id=":V0001_2_0" index="0" speed="10.50" length="11.56" shape="581.41,828.97 583.61,828.47 586.20,828.59 589.18,829.34 592.55,830.72"/>
        <lane id=":V0001_2_1" index="1" speed="9.55" length="8.92" shape="582.61,831.93 584.17,831.62 586.11,831.80 588.45,832.46 591.18,833.61"/>
    </edge>
    <edge id=":V0002_0" function="internal">
        <lane id=":V0002_0_0" index="0" speed="6.50" length="26.62" shape="869.08,955.07 875.02,960.04 878.51,959.98 879.55,954.90 878.13,944.79"/>
    </edge>
    <edge id=":V0002_1" function="internal">
        <lane id=":V0002_1_0" index="0" speed="9.00" length="30.74" shape="869.08,955.07 875.94,960.50 880.95,960.55 884.12,955.22 885.44,944.52"/>
    </edge>
    <edge id=":V0002_2" function="internal">
        <lane id=":V0002_2_0" index="0" speed="6.00" length="29.09" shape="869.08,955.07 874.45,961.68 879.85,969.92 883.05,976.90 881.82,979.68"/>
    </edge>
    <edge id=":V0002_3" function="internal">
        <lane id=":V0002_3_0" index="0" speed="8.00" length="26.23" shape="869.37,961.91 875.06,963.27 878.42,960.88 879.44,954.72 878.13,944.79"/>
    </edge>
    <edge id=":V0002_4" function="internal">
        <lane id=":V0002_4_0" index="0" speed="9.47" length="26.71" shape="869.37,961.91 874.74,962.98 878.68,960.42 881.18,954.24 882.24,944.43"/>
        <lane id=":V0002_4_1" index="1" speed="10.50" length="33.51" shape="868.00,964.80 875.32,966.48 880.66,963.66 884.03,956.34 885.44,944.52"/>
    </edge>
    <edge id=":V0002_6" function="internal">
        <lane id=":V0002_6_0" index="0" speed="6.98" length="20.19" shape="868.00,964.80 873.37,967.78 879.36,971.77 883.17,975.20 882.03,976.49"/>
    </edge>
    <edge id=":V0002_7" function="internal">
        <lane id=":V0002_7_0" index="0" speed="6.16" length="14.15" shape="871.37,952.88 874.08,955.00 875.59,954.47 875.90,951.29 875.00,945.45"/>
    </edge>
    <edge id=":V0002_8" function="internal">
        <lane id=":V0002_8_0" index="0" speed="7.79" length="21.33" shape="871.37,952.88 875.91,956.37 879.24,956.12 881.35,952.14 882.24,944.43"/>
        <lane id=":V0002_8_1" index="1" speed="9.25" length="30.75" shape="869.06,955.09 875.93,960.51 880.94,960.56 884.11,955.23 885.44,944.52"/>
    </edge>
    <edge id=":V0002_10" function="internal">
        <lane id=":V0002_10_0" index="0" speed="8.00" length="32.21" shape="869.06,955.09 874.55,962.20 880.12,971.55 883.30,979.62 881.60,982.88"/>
    </edge>
    <edge id=":V0003_0" function="internal">
        <lane id=":V0003_0_0" index="0" speed="15.00" length="15.61" shape="328.96,946.13 324.44,945.62 321.44,944.64 318.70,942.93 314.96,940.21"/>
        <lane id=":V0003_0_1" index="1" speed="15.00" length="15.61" shape="328.96,946.13 324.79,945.20 322.38,943.30 320.22,940.68 316.81,937.61"/>
        <lane id=":V0003_0_2" index="2" speed="15.00" length="15.61" shape="328.96,946.13 325.03,944.80 323.29,942.02 321.82,938.52 318.67,935.00"/>
    </edge>
    <edge id=":V0003_3" function="internal">
        <lane id=":V0003_3_0" index="0" speed="9.11" length="24.31" shape="329.17,942.94 326.13,940.91 326.10,936.06 328.27,929.25 331.84,921.37"/>
    </edge>
    <edge id=":V0003_4" function="internal">
        <lane id=":V0003_4_0" index="0" speed="6.90" length="19.11" shape="329.38,939.75 326.65,938.45 329.01,935.90 334.27,932.88 340.23,930.19"/>
    </edge>
    <edge id=":V0003_5" function="internal">
        <lane id=":V0003_5_0" index="0" speed="5.45" length="10.02" shape="335.15,923.00 333.93,926.03 334.17,927.74 335.87,928.14 339.03,927.22"/>
    </edge>
    <edge id=":V0003_6" function="internal">
        <lane id=":V0003_6_0" index="0" speed="10.23" length="26.29" shape="335.15,923.00 330.63,930.78 326.12,936.34 321.55,938.88 316.81,937.61"/>
        <lane id=":V0003_6_1" index="1" speed="9.58" length="22.89" shape="335.15,923.00 330.71,930.22 326.48,934.62 322.47,936.22 318.67,935.00"/>
    </edge>
    <edge id=":V0003_8" function="internal">
        <lane id=":V0003_8_0" index="0" speed="3.85" length="5.39" shape="335.15,923.00 333.71,923.83 332.68,923.83 332.05,923.01 331.84,921.37"/>
    </edge>
    <edge id=":V0004_0" function="internal">
        <lane id=":V0004_0_0" index="0" speed="5.46" length="10.09" shape="722.13,199.54 721.13,196.39 719.85,195.21 718.29,195.99 716.46,198.75"/>
    </edge>
    <edge id=":V0004_1" function="internal">
        <lane id=":V0004_1_0" index="0" speed="3.29" length="2.54" shape="722.13,199.54 722.08,199.33 722.14,199.89 722.14,200.80 721.94,201.63"/>
        <lane id=":V0004_1_1" index="1" speed="4.16" length="5.09" shape="722.13,199.54 721.66,198.24 721.00,197.91 720.15,198.54 719.11,200.14"/>
        <lane id=":V0004_1_2" index="2" speed="5.52" length="10.28" shape="722.13,199.54 721.10,196.34 719.79,195.13 718.18,195.90 716.27,198.65"/>
    </edge>
    <edge id=":V0004_4" function="internal">
        <lane id=":V0004_4_0" index="0" speed="6.82" length="13.33" shape="722.13,199.54 720.77,195.41 718.83,193.18 716.31,192.86 713.20,194.44"/>
    </edge>
    <edge id=":V0004_5" function="internal">
        <lane id=":V0004_5_0" index="0" speed="6.10" length="10.12" shape="722.13,199.54 721.13,196.77 719.58,195.36 717.47,195.31 714.81,196.61"/>
        <lane id=":V0004_5_1" index="1" speed="6.98" length="13.67" shape="722.13,199.54 720.74,195.34 718.75,193.02 716.13,192.59 712.90,194.04"/>
    </edge>
    <edge id=":V0005_0" function="internal">
        <lane id=":V0005_0_0" index="0" speed="4.37" length="7.41" shape="479.33,631.02 480.63,628.56 480.96,627.67 480.32,628.35 478.72,630.59"/>
    </edge>
    <edge id=":V0005_1" function="internal">
        <lane id=":V0005_1_0" index="0" speed="16.28" length="26.21" shape="457.39,644.56 463.63,642.93 469.27,640.06 474.30,635.94 478.72,630.59"/>
    </edge>
    <edge id=":V0005_2" function="internal">
        <lane id=":V0005_2_0" index="0" speed="24.00" length="30.42" shape="462.23,656.15 465.34,650.84 470.24,643.23 475.26,635.69 478.72,630.59"/>
    </edge>
    <edge id=":V0006_0" function="internal">
        <lane id=":V0006_0_0" index="0" speed="10.80" length="13.52" shape="17.61,728.98 16.17,727.32 15.10,724.65 14.40,720.97 14.07,716.28"/>
        <lane id=":V0006_0_1" index="1" speed="9.61" length="10.61" shape="19.46,726.37 18.59,725.22 17.94,723.13 17.50,720.12 17.27,716.19"/>
    </edge>
    <edge id=":V0006_2" function="internal">
        <lane id=":V0006_2_0" index="0" speed="8.72" length="27.45" shape="21.31,723.76 22.62,721.51 29.31,718.68 38.25,716.04 46.32,714.31"/>
    </edge>
    <edge id=":V0006_3" function="internal">
        <lane id=":V0006_3_0" index="0" speed="5.54" length="11.36" shape="43.32,703.31 40.43,705.94 39.81,707.59 41.45,708.28 45.35,707.99"/>
    </edge>
    <edge id=":V0006_4" function="internal">
        <lane id=":V0006_4_0" index="0" speed="9.62" length="31.09" shape="43.32,703.31 33.89,710.33 25.57,715.69 19.61,718.08 17.27,716.19"/>
    </edge>
    <edge id=":V0006_5" function="internal">
        <lane id=":V0006_5_0" index="0" speed="5.66" length="11.89" shape="45.11,705.57 41.81,708.57 40.83,710.50 42.17,711.36 45.84,711.15"/>
    </edge>
    <edge id=":V0006_6" function="internal">
        <lane id=":V0006_6_0" index="0" speed="10.02" length="34.05" shape="45.11,705.57 37.34,710.34 27.03,715.06 18.00,717.71 14.07,716.28"/>
        <lane id=":V0006_6_1" index="1" speed="9.36" length="29.50" shape="43.12,703.06 36.16,707.90 27.62,712.93 20.37,716.31 17.27,716.19"/>
    </edge>
    <edge id=":V0007_0" function="internal">
        <lane id=":V0007_0_0" index="0" speed="6.82" length="10.99" shape="388.04,440.63 386.36,442.52 385.97,444.72 386.87,447.22 389.07,450.03"/>
        <lane id=":V0007_0_1" index="1" speed="7.56" length="13.74" shape="388.04,440.63 385.24,443.38 384.10,446.24 384.60,449.19 386.76,452.25"/>
    </edge>
    <edge id=":V0007_2" function="internal">
        <lane id=":V0007_2_0" index="0" speed="8.00" length="9.73" shape="388.04,440.63 386.07,442.70 385.27,444.63 384.47,446.57 382.54,448.68"/>
        <lane id=":V0007_2_1" index="1" speed="8.00" length="9.73" shape="386.13,438.07 384.15,440.14 383.33,442.08 382.53,444.03 380.58,446.15"/>
        <lane id=":V0007_2_2" index="2" speed="8.00" length="9.73" shape="386.13,438.07 378.62,443.62"/>
    </edge>
    <edge id=":V0008_0" function="internal">
        <lane id=":V0008_0_0" index="0" speed="8.81" length="24.01" shape="-4.68,57.20 -3.17,51.93 1.16,50.50 7.32,51.84 14.34,54.92"/>
        <lane id=":V0008_0_1" index="1" speed="7.49" length="16.96" shape="-1.49,57.11 -0.66,54.64 2.02,53.93 6.54,54.98 12.90,57.77"/>
    </edge>
    <edge id=":V0008_2" function="internal">
        <lane id=":V0008_2_0" index="0" speed="6.85" length="16.59" shape="-1.49,57.11 -0.84,54.32 1.33,54.11 5.02,56.47 10.23,61.40"/>
    </edge>
    <edge id=":V0009_0" function="internal">
        <lane id=":V0009_0_0" index="0" speed="10.26" length="15.19" shape="536.99,316.88 533.25,319.83 530.68,322.83 529.28,325.89 529.05,328.99"/>
    </edge>
    <edge id=":V0009_1" function="internal">
        <lane id=":V0009_1_0" index="0" speed="18.50" length="18.10" shape="536.99,316.88 532.91,320.24 530.65,323.16 528.47,326.18 524.61,329.85"/>
        <lane id=":V0009_1_1" index="1" speed="18.50" length="18.10" shape="535.20,314.23 531.06,317.63 528.76,320.58 526.54,323.63 522.63,327.34"/>
        <lane id=":V0009_1_2" index="2" speed="18.50" length="18.10" shape="535.20,314.23 520.64,324.83"/>
    </edge>
    <edge id=":V0009_4" function="internal">
        <lane id=":V0009_4_0" index="0" speed="11.30" length="16.31" shape="526.22,312.99 526.79,314.19 527.45,317.26 528.21,322.19 529.05,328.99"/>
    </edge>
    <edge id=":V0009_5" function="internal">
        <lane id=":V0009_5_0" index="0" speed="7.16" length="14.85" shape="524.77,315.85 527.47,317.99 528.01,320.62 526.40,323.74 522.63,327.34"/>
        <lane id=":V0009_5_1" index="1" speed="6.43" length="11.72" shape="524.77,315.85 526.17,317.24 525.94,319.20 524.10,321.73 520.64,324.83"/>
    </edge>
    <edge id=":V0011_0" function="internal">
        <lane id=":V0011_0_0" index="0" speed="8.50" length="23.04" shape="733.22,268.16 732.26,261.13 732.07,254.84 732.07,249.48 731.69,245.20"/>
    </edge>
    <edge id=":V0011_1" function="internal">
        <lane id=":V0011_1_0" index="0" speed="14.42" length="20.27" shape="736.35,267.50 735.50,261.53 735.57,256.27 736.58,251.71 738.53,247.86"/>
        <lane id=":V0011_1_1" index="1" speed="13.95" length="18.96" shape="736.35,267.50 736.00,263.27 736.69,258.89 738.41,254.36 741.16,249.68"/>
    </edge>
    <edge id=":V0011_3" function="internal">
        <lane id=":V0011_3_0" index="0" speed="11.50" length="20.47" shape="723.74,263.68 727.64,257.60 730.26,252.49 731.61,248.36 731.69,245.20"/>
    </edge>
    <edge id=":V0011_4" function="internal">
        <lane id=":V0011_4_0" index="0" speed="19.00" length="21.41" shape="723.74,263.68 735.89,246.05"/>
        <lane id=":V0011_4_1" index="1" speed="19.00" length="21.41" shape="726.38,265.50 738.53,247.86"/>
        <lane id=":V0011_4_2" index="2" speed="19.00" length="21.41" shape="729.01,267.31 741.16,249.68"/>
    </edge>
    <edge id=":V0012_0" function="internal">
        <lane id=":V0012_0_0" index="0" speed="9.67" length="12.68" shape="533.40,328.36 531.68,330.24 530.60,332.82 530.15,336.12 530.33,340.12"/>
    </edge>
    <edge id=":V0012_1" function="internal">
        <lane id=":V0012_1_0" index="0" speed="7.50" length="12.28" shape="533.40,328.36 531.21,330.62 529.91,332.96 528.42,335.44 525.67,338.11"/>
        <lane id=":V0012_1_1" index="1" speed="7.50" length="12.28" shape="533.40,328.36 523.76,335.55"/>
    </edge>
    <edge id=":V0012_3" function="internal">
        <lane id=":V0012_3_0" index="0" speed="20.00" length="11.01" shape="529.07,329.19 530.33,340.12"/>
    </edge>
    <edge id=":V0012_4" function="internal">
        <lane id=":V0012_4_0" index="0" speed="8.02" length="8.52" shape="529.07,329.19 528.84,330.41 527.87,331.88 526.18,333.59 523.76,335.55"/>
    </edge>
    <edge id=":V0013_0" function="internal">
        <lane id=":V0013_0_0" index="0" speed="5.24" length="5.93" shape="382.38,448.80 382.59,449.60 383.86,450.81 385.42,452.05 386.46,452.91"/>
    </edge>
    <edge id=":V0013_1" function="internal">
        <lane id=":V0013_1_0" index="0" speed="10.50" length="6.36" shape="378.46,443.74 373.43,447.63"/>
    </edge>
    <edge id=":V0013_2" function="internal">
        <lane id=":V0013_2_0" index="0" speed="11.50" length="11.39" shape="378.57,444.69 386.46,452.91"/>
    </edge>
    <edge id=":V0013_3" function="internal">
        <lane id=":V0013_3_0" index="0" speed="5.24" length="5.93" shape="378.57,444.69 373.43,447.63"/>
    </edge>
    <edge id=":V0014_0" function="internal">
        <lane id=":V0014_0_0" index="0" speed="6.17" length="6.06" shape="523.15,579.66 517.14,578.92"/>
        <lane id=":V0014_0_1" index="1" speed="6.26" length="6.24" shape="520.31,578.17 514.83,581.14"/>
    </edge>
    <edge id=":V0014_2" function="internal">
        <lane id=":V0014_2_0" index="0" speed="8.00" length="7.13" shape="517.48,576.67 514.16,582.98"/>
    </edge>
    <edge id=":V0014_3" function="internal">
        <lane id=":V0014_3_0" index="0" speed="13.50" length="2.33" shape="513.21,579.46 514.83,581.14"/>
        <lane id=":V0014_3_1" index="1" speed="13.50" length="2.33" shape="510.91,581.68 512.52,583.36"/>
    </edge>
    <edge id=":V0014_5" function="internal">
        <lane id=":V0014_5_0" index="0" speed="4.89" length="3.51" shape="510.91,581.68 514.16,582.98"/>
    </edge>
    <edge id=":V0015_0" function="internal">
        <lane id=":V0015_0_0" index="0" speed="5.25" length="5.90" shape="383.54,441.59 378.44,444.55"/>
    </edge>
    <edge id=":V0015_1" function="internal">
        <lane id=":V0015_1_0" index="0" speed="11.50" length="12.14" shape="381.55,439.08 372.04,446.61"/>
        <lane id=":V0015_1_1" index="1" speed="11.50" length="12.14" shape="379.57,436.57 370.05,444.10"/>
    </edge>
    <edge id=":V0015_3" function="internal">
        <lane id=":V0015_3_0" index="0" speed="7.50" length="11.34" shape="370.58,436.37 378.44,444.55"/>
    </edge>
    <edge id=":V0015_4" function="internal">
        <lane id=":V0015_4_0" index="0" speed="6.31" length="9.04" shape="370.58,436.37 372.04,438.41 372.44,440.38 371.78,442.28 370.05,444.10"/>
    </edge>
    <edge id=":V0016_0" function="internal">
        <lane id=":V0016_0_0" index="0" speed="12.45" length="9.68" shape="557.86,501.03 556.08,503.32 554.36,504.75 553.16,506.28 552.93,508.87"/>
    </edge>
    <edge id=":V0016_1" function="internal">
        <lane id=":V0016_1_0" index="0" speed="21.50" length="17.59" shape="555.06,499.49 546.61,514.92"/>
        <lane id=":V0016_1_1" index="1" speed="21.50" length="17.59" shape="552.25,497.96 543.80,513.38"/>
    </edge>
    <edge id=":V0016_3" function="internal">
        <lane id=":V0016_3_0" index="0" speed="13.00" length="12.38" shape="548.37,497.20 549.22,500.24 550.59,502.56 551.99,505.12 552.93,508.87"/>
        <lane id=":V0016_3_1" index="1" speed="13.00" length="12.38" shape="548.37,497.20 549.75,509.24"/>
    </edge>
    <edge id=":V0016_5" function="internal">
        <lane id=":V0016_5_0" index="0" speed="16.44" length="17.11" shape="548.37,497.20 548.46,500.78 547.81,504.39 546.30,508.44 543.80,513.38"/>
    </edge>
    <edge id=":V0017_0" function="internal">
        <lane id=":V0017_0_0" index="0" speed="5.69" length="7.68" shape="512.35,583.90 506.69,578.72"/>
    </edge>
    <edge id=":V0017_1" function="internal">
        <lane id=":V0017_1_0" index="0" speed="8.00" length="4.73" shape="512.35,583.90 515.63,587.31"/>
    </edge>
    <edge id=":V0017_2" function="internal">
        <lane id=":V0017_2_0" index="0" speed="16.00" length="5.30" shape="506.32,584.89 509.32,580.53"/>
        <lane id=":V0017_2_1" index="1" speed="16.00" length="5.30" shape="508.95,586.71 511.96,582.35"/>
    </edge>
    <edge id=":V0017_4" function="internal">
        <lane id=":V0017_4_0" index="0" speed="5.78" length="7.98" shape="508.95,586.71 510.32,585.36 511.89,585.01 513.66,585.66 515.63,587.31"/>
    </edge>
    <edge id=":V0018_0" function="internal">
        <lane id=":V0018_0_0" index="0" speed="16.86" length="17.15" shape="556.09,503.35 554.22,507.04 552.42,511.22 551.17,515.51 550.93,519.50"/>
    </edge>
    <edge id=":V0018_1" function="internal">
        <lane id=":V0018_1_0" index="0" speed="11.00" length="28.77" shape="556.09,503.35 554.87,507.80 553.97,514.24 552.23,522.27 548.51,531.48"/>
        <lane id=":V0018_1_1" index="1" speed="11.00" length="28.77" shape="556.09,503.35 554.41,507.60 552.51,513.58 549.79,521.11 545.68,529.99"/>
        <lane id=":V0018_1_2" index="2" speed="11.00" length="28.77" shape="556.09,503.35 542.85,528.50"/>
    </edge>
    <edge id=":V0018_4" function="internal">
        <lane id=":V0018_4_0" index="0" speed="14.00" length="10.77" shape="552.95,509.07 552.81,512.23 551.95,514.40 551.09,516.52 550.93,519.50"/>
    </edge>
    <edge id=":V0018_5" function="internal">
        <lane id=":V0018_5_0" index="0" speed="7.50" length="21.50" shape="549.77,509.44 550.30,515.53 549.98,519.96 548.54,524.26 545.68,529.99"/>
        <lane id=":V0018_5_1" index="1" speed="7.50" length="20.88" shape="549.77,509.44 549.84,515.34 548.51,519.33 546.08,523.13 542.85,528.50"/>
    </edge>
    <edge id=":V0019_0" function="internal">
        <lane id=":V0019_0_0" index="0" speed="15.00" length="7.53" shape="513.83,590.49 512.43,592.07 510.88,592.65 509.33,593.23 507.93,594.81"/>
    </edge>
    <edge id=":V0019_1" function="internal">
        <lane id=":V0019_1_0" index="0" speed="3.21" length="2.98" shape="511.09,588.83 508.84,586.87"/>
    </edge>
    <edge id=":V0019_2" function="internal">
        <lane id=":V0019_2_0" index="0" speed="23.50" length="7.92" shape="504.59,593.04 505.49,590.85 505.39,589.05 505.30,587.25 506.20,585.06"/>
        <lane id=":V0019_2_1" index="1" speed="23.50" length="7.92" shape="504.59,593.04 508.84,586.87"/>
    </edge>
    <edge id=":V0020_0" function="internal">
        <lane id=":V0020_0_0" index="0" speed="6.55" length="7.02" shape="514.90,572.78 513.68,575.20 512.97,577.10 512.77,578.47 513.08,579.32"/>
        <lane id=":V0020_0_1" index="1" speed="8.04" length="10.99" shape="512.09,571.24 510.48,574.67 509.73,577.53 509.82,579.82 510.77,581.53"/>
    </edge>
    <edge id=":V0020_2" function="internal">
        <lane id=":V0020_2_0" index="0" speed="12.00" length="10.31" shape="512.09,571.24 507.14,580.29"/>
    </edge>
    <edge id=":V0020_3" function="internal">
        <lane id=":V0020_3_0" index="0" speed="9.50" length="10.09" shape="506.09,572.04 513.08,579.32"/>
        <lane id=":V0020_3_1" index="1" speed="9.50" length="10.09" shape="503.78,574.25 510.77,581.53"/>
    </edge>
    <edge id=":V0020_5" function="internal">
        <lane id=":V0020_5_0" index="0" speed="6.62" length="7.18" shape="503.78,574.25 505.58,576.28 506.74,577.97 507.26,579.30 507.14,580.29"/>
    </edge>
    <edge id=":V0021_0" function="internal">
        <lane id=":V0021_0_0" index="0" speed="6.14" length="9.15" shape="517.27,579.07 516.61,569.95"/>
    </edge>
    <edge id=":V0021_1" function="internal">
        <lane id=":V0021_1_0" index="0" speed="15.00" length="5.97" shape="514.96,581.28 515.67,582.74 515.44,584.09 515.21,585.44 515.91,586.90"/>
    </edge>
    <edge id=":V0021_2" function="internal">
        <lane id=":V0021_2_0" index="0" speed="8.50" length="13.18" shape="506.80,578.55 509.37,575.70 511.71,574.25 514.04,572.80 516.61,569.95"/>
        <lane id=":V0021_2_1" index="1" speed="8.50" length="13.18" shape="509.43,580.37 512.01,577.51 514.34,576.06 516.67,574.62 519.25,571.76"/>
    </edge>
    <edge id=":V0021_4" function="internal">
        <lane id=":V0021_4_0" index="0" speed="5.15" length="6.08" shape="512.07,582.18 515.91,586.90"/>
    </edge>
    <edge id=":V0022_0" function="internal">
        <lane id=":V0022_0_0" index="0" speed="3.91" length="1.95" shape="514.07,583.16 512.21,583.76"/>
    </edge>
    <edge id=":V0022_1" function="internal">
        <lane id=":V0022_1_0" index="0" speed="8.00" length="6.79" shape="514.07,583.16 513.58,585.17 514.00,586.73 514.41,588.30 513.92,590.31"/>
        <lane id=":V0022_1_1" index="1" speed="8.00" length="6.79" shape="514.07,583.16 511.18,588.65"/>
    </edge>
    <edge id=":V0022_3" function="internal">
        <lane id=":V0022_3_0" index="0" speed="14.00" length="4.33" shape="512.50,579.44 512.21,583.76"/>
    </edge>
    <edge id=":V0022_4" function="internal">
        <lane id=":V0022_4_0" index="0" speed="6.83" length="7.60" shape="510.19,581.66 511.39,583.27 511.95,584.97 511.88,586.77 511.18,588.65"/>
    </edge>
    <edge id=":V0023_0" function="internal">
        <lane id=":V0023_0_0" index="0" speed="12.22" length="10.30" shape="564.83,640.60 565.79,643.08 567.63,644.07 569.99,644.81 572.54,646.54"/>
    </edge>
    <edge id=":V0023_1" function="internal">
        <lane id=":V0023_1_0" index="0" speed="16.00" length="8.06" shape="564.83,640.60 565.75,648.60"/>
    </edge>
    <edge id=":V0023_2" function="internal">
        <lane id=":V0023_2_0" index="0" speed="9.00" length="20.89" shape="558.17,631.58 561.26,634.08 565.21,636.60 569.81,639.80 574.85,644.32"/>
        <lane id=":V0023_2_1" index="1" speed="9.00" length="20.89" shape="558.17,631.58 572.54,646.54"/>
    </edge>
    <edge id=":V0023_4" function="internal">
        <lane id=":V0023_4_0" index="0" speed="9.00" length="20.38" shape="558.17,631.58 561.15,634.32 564.43,637.57 567.26,641.99 568.93,648.24"/>
    </edge>
    <edge id=":V0024_0" function="internal">
        <lane id=":V0024_0_0" index="0" speed="4.68" length="3.19" shape="507.04,580.46 510.05,581.51"/>
    </edge>
    <edge id=":V0024_1" function="internal">
        <lane id=":V0024_1_0" index="0" speed="12.00" length="3.60" shape="507.04,580.46 505.31,583.62"/>
    </edge>
    <edge id=":V0024_2" function="internal">
        <lane id=":V0024_2_0" index="0" speed="19.00" length="12.72" shape="501.41,572.52 503.96,574.45 506.51,575.52 509.26,576.79 512.36,579.30"/>
        <lane id=":V0024_2_1" index="1" speed="19.00" length="12.72" shape="501.41,572.52 510.05,581.51"/>
    </edge>
    <edge id=":V0024_4" function="internal">
        <lane id=":V0024_4_0" index="0" speed="8.55" length="12.55" shape="501.41,572.52 504.04,575.69 505.57,578.60 505.99,581.24 505.31,583.62"/>
    </edge>
    <edge id=":V0025_0" function="internal">
        <lane id=":V0025_0_0" index="0" speed="7.50" length="12.49" shape="566.95,630.96 567.16,634.85 567.21,637.79 567.78,640.29 569.55,642.81"/>
    </edge>
    <edge id=":V0025_1" function="internal">
        <lane id=":V0025_1_0" index="0" speed="15.50" length="9.14" shape="563.77,631.32 564.81,640.40"/>
    </edge>
    <edge id=":V0025_2" function="internal">
        <lane id=":V0025_2_0" index="0" speed="9.50" length="13.57" shape="560.16,633.02 569.55,642.81"/>
    </edge>
    <edge id=":V0025_3" function="internal">
        <lane id=":V0025_3_0" index="0" speed="11.47" length="9.02" shape="560.16,633.02 562.09,634.89 563.43,636.27 564.30,637.86 564.81,640.40"/>
    </edge>
    <edge id=":V0026_0" function="internal">
        <lane id=":V0026_0_0" index="0" speed="5.92" length="12.04" shape="550.95,519.70 555.13,508.41"/>
    </edge>
    <edge id=":V0026_1" function="internal">
        <lane id=":V0026_1_0" index="0" speed="15.00" length="13.71" shape="550.95,519.70 551.82,522.87 553.23,525.50 554.68,528.49 555.67,532.73"/>
        <lane id=":V0026_1_1" index="1" speed="15.00" length="13.71" shape="550.95,519.70 552.49,533.10"/>
    </edge>
    <edge id=":V0026_3" function="internal">
        <lane id=":V0026_3_0" index="0" speed="11.00" length="23.86" shape="544.22,529.88 557.76,510.22"/>
        <lane id=":V0026_3_1" index="1" speed="11.00" length="23.86" shape="546.86,531.69 560.40,512.04"/>
    </edge>
    <edge id=":V0026_5" function="internal">
        <lane id=":V0026_5_0" index="0" speed="5.46" length="4.15" shape="546.86,531.69 548.97,529.23 549.82,528.92"/>
    </edge>
    <edge id=":V0026_6" function="internal">
        <lane id=":V0026_6_0" index="0" speed="5.46" length="5.83" shape="549.82,528.92 550.61,528.64 551.78,529.93 552.49,533.10"/>
    </edge>

    <edge id="E0001" from="V0001" to="V0002" priority="-1">
        <lane id="E0001_0" index="0" speed="9.00" length="306.34" shape="592.55,830.72 869.37,961.91"/>
        <lane id="E0001_1" index="1" speed="9.00" length="306.34" shape="591.18,833.61 868.00,964.80"/>
    </edge>
    <edge id="E0003" from="V0002" to="V0003" priority="-1">
        <lane id="E0003_0" index="0" speed="6.00" length="553.87" shape="881.60,982.88 328.96,946.13"/>
        <lane id="E0003_1" index="1" speed="6.00" length="553.87" shape="881.82,979.68 329.17,942.94"/>
        <lane id="E0003_2" index="2" speed="6.00" length="553.87" shape="882.03,976.49 329.38,939.75"/>
    </edge>
    <edge id="E0007" from="V0003" to="V0005" priority="-1">
        <lane id="E0007_0" index="0" speed="25.00" length="295.54" shape="331.84,921.37 462.23,656.15"/>
    </edge>
    <edge id="E0009" from="V0003" to="V0006" priority="-1">
        <lane id="E0009_0" index="0" speed="24.00" length="364.75" shape="314.96,940.21 17.61,728.98"/>
        <lane id="E0009_1" index="1" speed="24.00" length="364.75" shape="316.81,937.61 19.46,726.37"/>
        <lane id="E0009_2" index="2" speed="24.00" length="364.75" shape="318.67,935.00 21.31,723.76"/>
    </edge>
    <edge id="E0013" from="V0006" to="V0008" priority="-1">
        <lane id="E0013_0" index="0" speed="20.00" length="659.35" shape="14.07,716.28 -4.68,57.20"/>
        <lane id="E0013_1" index="1" speed="20.00" length="659.35" shape="17.27,716.19 -1.49,57.11"/>
    </edge>
    <edge id="E0015" from="V0004" to="V0009" priority="-1">
        <lane id="E0015_0" index="0" speed="21.00" length="214.60" shape="714.81,196.61 536.99,316.88"/>
        <lane id="E0015_1" index="1" speed="21.00" length="214.60" shape="712.90,194.04 535.20,314.23"/>
    </edge>
    <edge id="E0027" from="V0008" to="V0009" priority="-1">
        <lane id="E0027_0" index="0" speed="5.00" length="573.25" shape="14.34,54.92 526.22,312.99"/>
        <lane id="E0027_1" index="1" speed="5.00" length="573.25" shape="12.90,57.77 524.77,315.85"/>
    </edge>
    <edge id="E0031" from="V0003" to="V0001" priority="-1">
        <lane id="E0031_0" index="0" speed="12.00" length="261.54" shape="339.03,927.22 581.41,828.97"/>
        <lane id="E0031_1" index="1" speed="12.00" length="261.54" shape="340.23,930.19 582.61,831.93"/>
    </edge>
    <edge id="E0033" from="V0006" to="V0005" priority="-1">
        <lane id="E0033_0" index="0" speed="13.00" length="416.90" shape="45.35,707.99 457.39,644.56"/>
        <lane id="E0033_1" index="1" speed="13.00" length="416.90" shape="45.84,711.15 457.88,647.72"/>
        <lane id="E0033_2" index="2" speed="13.00" length="416.90" shape="46.32,714.31 458.37,650.88"/>
    </edge>
    <edge id="E0037" from="V0002" to="V0010" priority="-1">
        <lane id="E0037_0" index="0" speed="12.00" length="933.58" shape="882.24,944.43 910.00,11.26"/>
        <lane id="E0037_1" index="1" speed="12.00" length="933.58" shape="885.44,944.52 913.19,11.35"/>
    </edge>
    <edge id="E0041" from="V0002" to="V0011" priority="-1">
        <lane id="E0041_0" index="0" speed="7.00" length="691.97" shape="875.00,945.45 733.22,268.16"/>
        <lane id="E0041_1" index="1" speed="7.00" length="691.97" shape="878.13,944.79 736.35,267.50"/>
    </edge>
    <edge id="E0043" from="V0011" to="V0004" priority="-1">
        <lane id="E0043_0" index="0" speed="10.00" length="46.65" shape="731.69,245.20 722.13,199.54"/>
    </edge>
    <edge id="E0046" from="V0004" to="V0012" priority="-1">
        <lane id="E0046_0" index="0" speed="8.00" length="224.19" shape="713.20,194.44 533.40,328.36"/>
    </edge>
    <edge id="E0047" from="V0011" to="V0010" priority="-1">
        <lane id="E0047_0" index="0" speed="25.00" length="291.01" shape="735.89,246.05 901.00,6.41"/>
        <lane id="E0047_1" index="1" speed="25.00" length="291.01" shape="738.53,247.86 903.64,8.22"/>
        <lane id="E0047_2" index="2" speed="25.00" length="291.01" shape="741.16,249.68 906.27,10.04"/>
    </edge>
    <edge id="E0048" from="V0012" to="V0007" priority="-1">
        <lane id="E0048_0" index="0" speed="7.00" length="171.62" shape="525.67,338.11 388.04,440.63"/>