<configuration><input><net-file value="16.net.xml" /><route-files value="16.rou.xml" /></input><time><begin value="0" /></time></configuration>