<?xml version="1.0" encoding="UTF-8"?>

<!-- generated on 2023-06-26 02:46:22 by Eclipse SUMO netconvert Version 1.16.0
<configuration xmlns:xsi="http://www.w3.org/2001/XMLSchema-instance" xsi:noNamespaceSchemaLocation="http://sumo.dlr.de/xsd/netconvertConfiguration.xsd">

    <input>
        <node-files value="data/simulationConfigurations/tmp/sim_18\sim_18.nod.xml"/>
        <edge-files value="data/simulationConfigurations/tmp/sim_18\sim_18.edg.xml"/>
    </input>

    <output>
        <output-file value="data/simulationConfigurations/tmp/sim_18\sim_18.net.xml"/>
    </output>

</configuration>
-->

<net version="1.16" junctionCornerDetail="5" limitTurnSpeed="5.50" xmlns:xsi="http://www.w3.org/2001/XMLSchema-instance" xsi:noNamespaceSchemaLocation="http://sumo.dlr.de/xsd/net_file.xsd">

    <location netOffset="-118.04,-232.33" convBoundary="0.00,0.00,814.06,725.09" origBoundary="118.04,120.00,932.09,957.42" projParameter="!"/>

    <edge id=":V0001_0" function="internal">
        <lane id=":V0001_0_0" index="0" speed="5.53" length="11.27" shape="20.51,708.05 18.43,711.31 18.26,713.07 20.01,713.33 23.67,712.10"/>
        <lane id=":V0001_0_1" index="1" speed="6.82" length="18.07" shape="20.51,708.05 17.04,713.43 16.62,716.39 19.25,716.92 24.94,715.04"/>
    </edge>
    <edge id=":V0002_0" function="internal">
        <lane id=":V0002_0_0" index="0" speed="5.87" length="13.54" shape="785.17,373.36 790.28,373.67 792.45,373.05 791.70,371.50 788.02,369.02"/>
    </edge>
    <edge id=":V0002_1" function="internal">
        <lane id=":V0002_1_0" index="0" speed="8.24" length="20.91" shape="785.17,373.36 793.30,373.76 798.58,372.73 801.00,370.26 800.55,366.36"/>
    </edge>
    <edge id=":V0002_2" function="internal">
        <lane id=":V0002_2_0" index="0" speed="11.68" length="34.38" shape="785.17,373.36 797.23,375.17 806.67,377.80 812.46,381.61 813.61,386.94"/>
    </edge>
    <edge id=":V0002_3" function="internal">
        <lane id=":V0002_3_0" index="0" speed="4.09" length="6.36" shape="785.17,373.36 786.71,374.57 787.17,375.70 786.54,376.74 784.82,377.70"/>
    </edge>
    <edge id=":V0002_4" function="internal">
        <lane id=":V0002_4_0" index="0" speed="5.57" length="11.62" shape="785.13,389.03 788.70,387.17 789.75,385.72 788.29,384.69 784.32,384.08"/>
        <lane id=":V0002_4_1" index="1" speed="6.90" length="18.82" shape="785.13,389.03 791.09,385.95 792.98,383.57 790.81,381.88 784.57,380.89"/>
        <lane id=":V0002_4_2" index="2" speed="8.01" length="26.03" shape="785.13,389.03 793.48,384.73 796.21,381.41 793.33,379.06 784.82,377.70"/>
    </edge>
    <edge id=":V0002_7" function="internal">
        <lane id=":V0002_7_0" index="0" speed="9.96" length="33.73" shape="785.13,389.03 794.91,383.53 798.92,377.90 797.15,372.14 789.61,366.24"/>
    </edge>
    <edge id=":V0002_8" function="internal">
        <lane id=":V0002_8_0" index="0" speed="12.14" length="33.50" shape="785.13,389.03 795.25,383.69 801.68,377.93 804.44,371.75 803.51,365.15"/>
        <lane id=":V0002_8_1" index="1" speed="12.62" length="36.32" shape="785.13,389.03 796.54,383.14 803.89,377.00 807.21,370.60 806.48,363.95"/>
    </edge>
    <edge id=":V0002_10" function="internal">
        <lane id=":V0002_10_0" index="0" speed="9.86" length="32.97" shape="785.13,389.03 796.06,384.74 805.70,382.11 812.18,382.41 813.61,386.94"/>
    </edge>
    <edge id=":V0003_0" function="internal">
        <lane id=":V0003_0_0" index="0" speed="6.49" length="18.04" shape="165.22,17.03 171.08,20.06 173.47,20.49 172.39,18.32 167.84,13.55"/>
    </edge>
    <edge id=":V0003_1" function="internal">
        <lane id=":V0003_1_0" index="0" speed="2.86" length="1.54" shape="165.22,17.03 164.80,16.72 164.41,16.37 164.16,16.18 164.18,16.36"/>
        <lane id=":V0003_1_1" index="1" speed="5.89" length="12.38" shape="167.16,14.45 163.08,12.53 160.74,12.43 160.13,14.14 161.27,17.68"/>
    </edge>
    <edge id=":V0003_3" function="internal">
        <lane id=":V0003_3_0" index="0" speed="7.93" length="19.32" shape="169.10,11.87 162.09,8.39 157.08,7.06 154.05,7.90 153.01,10.90"/>
    </edge>
    <edge id=":V0005_0" function="internal">
        <lane id=":V0005_0_0" index="0" speed="5.46" length="10.18" shape="716.57,159.40 715.00,156.43 713.54,155.49 712.18,156.57 710.91,159.67"/>
        <lane id=":V0005_0_1" index="1" speed="6.58" length="15.62" shape="716.57,159.40 714.09,154.59 711.81,152.89 709.73,154.28 707.84,158.77"/>
    </edge>
    <edge id=":V0005_2" function="internal">
        <lane id=":V0005_2_0" index="0" speed="9.75" length="25.51" shape="719.53,158.19 715.24,148.97 711.19,143.08 707.40,140.54 703.86,141.32"/>
    </edge>
    <edge id=":V0005_3" function="internal">
        <lane id=":V0005_3_0" index="0" speed="12.04" length="30.97" shape="722.50,156.99 717.70,147.12 712.67,140.55 707.40,137.27 701.89,137.29"/>
    </edge>
    <edge id=":V0007_0" function="internal">
        <lane id=":V0007_0_0" index="0" speed="10.69" length="41.59" shape="755.52,624.79 750.48,632.22 742.79,630.70 734.12,623.16 726.18,612.51"/>
        <lane id=":V0007_0_1" index="1" speed="10.39" length="39.23" shape="755.52,624.79 750.93,631.44 744.04,629.20 736.23,621.26 728.90,610.81"/>
    </edge>
    <edge id=":V0007_2" function="internal">
        <lane id=":V0007_2_0" index="0" speed="3.65" length="4.67" shape="731.61,609.12 731.57,610.56 731.10,611.32 730.21,611.41 728.90,610.81"/>
    </edge>
    <edge id=":V0007_3" function="internal">
        <lane id=":V0007_3_0" index="0" speed="5.49" length="10.83" shape="719.93,618.16 723.36,619.45 725.10,619.22 725.13,617.47 723.47,614.20"/>
        <lane id=":V0007_3_1" index="1" speed="7.74" length="23.37" shape="718.55,621.04 725.96,623.83 729.70,623.33 729.77,619.56 726.18,612.51"/>
        <lane id=":V0007_3_2" index="2" speed="9.48" length="35.91" shape="717.17,623.93 728.55,628.20 734.30,627.44 734.41,621.64 728.90,610.81"/>
    </edge>
    <edge id=":V0008_0" function="internal">
        <lane id=":V0008_0_0" index="0" speed="6.93" length="17.98" shape="379.11,71.02 377.34,63.17 375.54,58.74 373.70,57.73 371.82,60.13"/>
    </edge>
    <edge id=":V0008_1" function="internal">
        <lane id=":V0008_1_0" index="0" speed="6.05" length="15.40" shape="379.11,71.02 380.10,66.37 382.06,64.17 385.00,64.43 388.91,67.13"/>
    </edge>
    <edge id=":V0008_2" function="internal">
        <lane id=":V0008_2_0" index="0" speed="12.07" length="70.68" shape="383.55,69.53 398.05,91.69 404.26,98.46 402.18,89.84 391.83,65.82"/>
        <lane id=":V0008_2_1" index="1" speed="6.75" length="20.56" shape="386.50,68.21 390.72,74.65 392.52,76.62 391.92,74.11 388.91,67.13"/>
    </edge>
    <edge id=":V0008_4" function="internal">
        <lane id=":V0008_4_0" index="0" speed="9.41" length="28.90" shape="389.45,66.89 382.93,57.99 377.33,53.68 372.66,53.95 368.92,58.80"/>
    </edge>
    <edge id=":V0008_5" function="internal">
        <lane id=":V0008_5_0" index="0" speed="12.08" length="37.34" shape="369.31,39.28 374.52,39.13 380.06,44.34 385.86,53.65 391.83,65.82"/>
        <lane id=":V0008_5_1" index="1" speed="11.23" length="32.13" shape="371.04,41.97 374.56,42.59 378.84,47.71 383.69,56.25 388.91,67.13"/>
    </edge>
    <edge id=":V0008_7" function="internal">
        <lane id=":V0008_7_0" index="0" speed="7.40" length="21.20" shape="371.04,41.97 374.07,41.59 373.95,45.57 371.84,51.95 368.92,58.80"/>
    </edge>
    <edge id=":V0009_0" function="internal">
        <lane id=":V0009_0_0" index="0" speed="17.50" length="19.43" shape="156.96,527.31 153.94,532.92 150.99,537.01 148.24,540.19 145.78,543.10"/>
    </edge>
    <edge id=":V0009_1" function="internal">
        <lane id=":V0009_1_0" index="0" speed="16.73" length="18.86" shape="150.39,525.15 150.05,531.30 149.18,536.10 147.76,539.92 145.78,543.10"/>
    </edge>
    <edge id=":V0010_0" function="internal">
        <lane id=":V0010_0_0" index="0" speed="5.50" length="12.02" shape="28.43,281.53 32.53,280.43 33.82,279.45 32.30,278.60 27.96,277.86"/>
        <lane id=":V0010_0_1" index="1" speed="2.69" length="1.32" shape="28.43,281.53 28.88,281.41 29.02,281.31 28.86,281.21 28.38,281.13"/>
        <lane id=":V0010_0_2" index="2" speed="4.96" length="9.37" shape="28.43,281.53 25.23,282.39 24.22,283.16 25.41,283.83 28.80,284.40"/>
    </edge>
    <edge id=":V0010_3" function="internal">
        <lane id=":V0010_3_0" index="0" speed="6.89" length="17.43" shape="28.43,281.53 20.42,283.36 15.14,284.87 12.58,286.06 12.75,286.95"/>
    </edge>
    <edge id=":V0010_4" function="internal">
        <lane id=":V0010_4_0" index="0" speed="7.49" length="23.65" shape="28.02,278.35 22.25,277.32 19.24,272.76 19.47,266.86 23.45,261.83"/>
        <lane id=":V0010_4_1" index="1" speed="6.85" length="19.46" shape="28.02,278.35 23.41,277.47 21.25,273.63 21.76,268.70 25.18,264.52"/>
    </edge>
    <edge id=":V0010_6" function="internal">
        <lane id=":V0010_6_0" index="0" speed="3.65" length="4.69" shape="28.02,278.35 26.73,277.71 26.23,276.96 26.52,276.11 27.62,275.17"/>
    </edge>
    <edge id=":V0011_0" function="internal">
        <lane id=":V0011_0_0" index="0" speed="7.37" length="11.72" shape="402.15,543.68 404.05,547.06 406.13,549.17 408.39,550.00 410.82,549.55"/>
    </edge>
    <edge id=":V0011_1" function="internal">
        <lane id=":V0011_1_0" index="0" speed="11.50" length="14.75" shape="396.41,552.25 400.86,550.89 404.42,550.56 407.58,550.40 410.82,549.55"/>
    </edge>
    <edge id=":V0012_0" function="internal">
        <lane id=":V0012_0_0" index="0" speed="11.90" length="15.20" shape="390.83,152.92 389.67,147.56 388.36,143.46 386.92,140.62 385.33,139.05"/>
        <lane id=":V0012_0_1" index="1" speed="12.90" length="17.95" shape="393.98,152.34 392.62,146.30 390.98,141.60 389.09,138.26 386.92,136.27"/>
    </edge>
    <edge id=":V0012_2" function="internal">
        <lane id=":V0012_2_0" index="0" speed="15.00" length="18.97" shape="393.98,152.34 390.57,133.68"/>
    </edge>
    <edge id=":V0012_3" function="internal">
        <lane id=":V0012_3_0" index="0" speed="17.00" length="16.41" shape="397.63,149.76 393.72,146.95 391.48,144.40 389.24,141.86 385.33,139.05"/>
        <lane id=":V0012_3_1" index="1" speed="17.00" length="16.41" shape="399.21,146.98 395.30,144.17 393.07,141.62 390.83,139.08 386.92,136.27"/>
    </edge>
    <edge id=":V0012_5" function="internal">
        <lane id=":V0012_5_0" index="0" speed="11.85" length="15.07" shape="400.80,144.20 396.68,141.55 393.60,138.92 391.56,136.30 390.57,133.68"/>
    </edge>
    <edge id=":V0013_0" function="internal">
        <lane id=":V0013_0_0" index="0" speed="5.60" length="9.33" shape="387.51,209.06 384.82,210.00 383.62,211.37 383.91,213.16 385.69,215.39"/>
        <lane id=":V0013_0_1" index="1" speed="7.38" length="17.34" shape="386.85,205.93 381.85,207.68 379.62,210.22 380.16,213.55 383.46,217.69"/>
        <lane id=":V0013_0_2" index="2" speed="8.81" length="25.35" shape="386.19,202.80 378.89,205.35 375.63,209.06 376.41,213.94 381.24,219.99"/>
    </edge>
    <edge id=":V0013_3" function="internal">
        <lane id=":V0013_3_0" index="0" speed="11.00" length="21.95" shape="367.83,202.57 372.54,206.43 376.49,208.72 380.58,211.14 385.69,215.39"/>
        <lane id=":V0013_3_1" index="1" speed="11.00" length="21.95" shape="365.61,204.87 370.32,208.73 374.27,211.02 378.35,213.44 383.46,217.69"/>
        <lane id=":V0013_3_2" index="2" speed="11.00" length="21.95" shape="365.61,204.87 381.24,219.99"/>
    </edge>
    <edge id=":V0014_0" function="internal">
        <lane id=":V0014_0_0" index="0" speed="25.00" length="15.86" shape="151.16,174.83 151.62,178.27 152.68,181.55 153.74,185.41 154.18,190.53"/>
        <lane id=":V0014_0_1" index="1" speed="25.00" length="15.86" shape="151.16,174.83 150.98,190.49"/>
    </edge>
    <edge id=":V0014_2" function="internal">
        <lane id=":V0014_2_0" index="0" speed="7.39" length="17.25" shape="143.46,184.60 148.21,182.35 151.57,182.59 153.56,185.32 154.18,190.53"/>
        <lane id=":V0014_2_1" index="1" speed="5.61" length="9.31" shape="145.20,187.29 147.76,186.08 149.57,186.21 150.65,187.68 150.98,190.49"/>
    </edge>
    <edge id=":V0015_0" function="internal">
        <lane id=":V0015_0_0" index="0" speed="5.14" length="10.69" shape="489.67,305.44 498.88,300.01"/>
        <lane id=":V0015_0_1" index="1" speed="6.90" length="20.98" shape="492.45,303.81 497.25,309.86 499.46,311.52 499.08,308.78 496.11,301.65"/>
    </edge>
    <edge id=":V0015_2" function="internal">
        <lane id=":V0015_2_0" index="0" speed="6.05" length="7.59" shape="495.22,302.17 493.58,300.35 491.98,299.35 490.41,299.19 488.88,299.86"/>
    </edge>
    <edge id=":V0015_3" function="internal">
        <lane id=":V0015_3_0" index="0" speed="8.46" length="13.61" shape="504.34,288.74 501.01,291.60 498.98,294.43 498.28,297.24 498.88,300.01"/>
        <lane id=":V0015_3_1" index="1" speed="9.74" length="18.31" shape="502.47,286.14 498.28,289.84 495.82,293.66 495.10,297.59 496.11,301.65"/>
    </edge>
    <edge id=":V0015_5" function="internal">
        <lane id=":V0015_5_0" index="0" speed="17.00" length="19.22" shape="502.47,286.14 498.15,289.87 495.68,293.00 493.21,296.13 488.88,299.86"/>
        <lane id=":V0015_5_1" index="1" speed="17.00" length="19.22" shape="502.47,286.14 487.01,297.26"/>
    </edge>
    <edge id=":V0015_7" function="internal">
        <lane id=":V0015_7_0" index="0" speed="21.50" length="17.84" shape="494.61,282.96 496.30,287.87 496.74,291.49 497.19,295.10 498.88,300.01"/>
        <lane id=":V0015_7_1" index="1" speed="21.50" length="17.84" shape="491.70,284.29 493.43,289.29 493.90,292.97 494.37,296.64 496.11,301.65"/>
    </edge>
    <edge id=":V0015_9" function="internal">
        <lane id=":V0015_9_0" index="0" speed="8.25" length="12.88" shape="488.78,285.62 490.01,289.28 490.12,292.43 489.12,295.10 487.01,297.26"/>
    </edge>
    <edge id=":V0015_10" function="internal">
        <lane id=":V0015_10_0" index="0" speed="7.73" length="15.13" shape="485.14,294.67 488.02,293.52 490.81,294.31 493.51,297.01 496.11,301.65"/>
    </edge>
    <edge id=":V0015_11" function="internal">
        <lane id=":V0015_11_0" index="0" speed="3.65" length="4.67" shape="485.14,294.67 486.58,294.61 487.38,295.03 487.52,295.91 487.01,297.26"/>
    </edge>
    <edge id=":V0016_0" function="internal">
        <lane id=":V0016_0_0" index="0" speed="7.59" length="10.62" shape="654.30,373.97 651.33,374.10 648.97,375.00 647.21,376.67 646.07,379.11"/>
    </edge>
    <edge id=":V0016_1" function="internal">
        <lane id=":V0016_1_0" index="0" speed="20.00" length="15.06" shape="654.30,373.97 639.28,372.80"/>
        <lane id=":V0016_1_1" index="1" speed="20.00" length="15.06" shape="654.55,370.78 639.53,369.61"/>
        <lane id=":V0016_1_2" index="2" speed="20.00" length="15.06" shape="654.80,367.58 639.78,366.42"/>
    </edge>
    <edge id=":V0016_4" function="internal">
        <lane id=":V0016_4_0" index="0" speed="11.00" length="16.64" shape="650.79,363.15 646.07,379.11"/>
        <lane id=":V0016_4_1" index="1" speed="11.00" length="16.64" shape="647.72,362.24 643.00,378.20"/>
    </edge>
    <edge id=":V0016_6" function="internal">
        <lane id=":V0016_6_0" index="0" speed="8.03" length="12.01" shape="647.72,362.24 646.34,365.64 644.52,367.99 642.25,369.32 639.53,369.61"/>
        <lane id=":V0016_6_1" index="1" speed="7.30" length="9.79" shape="647.72,362.24 646.71,364.26 645.04,365.63 642.73,366.35 639.78,366.42"/>
    </edge>
    <edge id=":V0017_0" function="internal">
        <lane id=":V0017_0_0" index="0" speed="10.00" length="14.50" shape="222.34,377.50 221.41,380.72 221.17,383.87 220.76,387.41 219.28,391.81"/>
        <lane id=":V0017_0_1" index="1" speed="10.00" length="14.50" shape="222.34,377.50 216.37,390.47"/>
    </edge>
    <edge id=":V0017_2" function="internal">
        <lane id=":V0017_2_0" index="0" speed="8.03" length="14.12" shape="215.00,380.15 218.23,382.30 220.02,384.96 220.37,388.13 219.28,391.81"/>
        <lane id=":V0017_2_1" index="1" speed="6.53" length="9.01" shape="213.62,383.04 215.69,384.41 216.84,386.11 217.07,388.13 216.37,390.47"/>
    </edge>
    <edge id=":V0018_0" function="internal">
        <lane id=":V0018_0_0" index="0" speed="5.62" length="9.80" shape="549.09,345.59 552.02,345.55 553.52,344.57 553.58,342.65 552.22,339.79"/>
        <lane id=":V0018_0_1" index="1" speed="6.60" length="14.11" shape="549.09,345.59 553.72,345.62 556.23,344.39 556.64,341.88 554.94,338.10"/>
        <lane id=":V0018_0_2" index="2" speed="7.46" length="18.46" shape="549.09,345.59 555.41,345.70 558.94,344.20 559.69,341.10 557.65,336.41"/>
    </edge>
    <edge id=":V0018_3" function="internal">
        <lane id=":V0018_3_0" index="0" speed="9.50" length="15.83" shape="549.09,345.59 552.51,344.99 555.80,343.16 559.69,341.40 564.91,341.01"/>
        <lane id=":V0018_3_1" index="1" speed="9.50" length="15.83" shape="549.09,345.59 552.52,345.49 555.79,344.77 559.57,344.11 564.54,344.19"/>
        <lane id=":V0018_3_2" index="2" speed="9.50" length="15.83" shape="549.09,345.59 564.16,347.36"/>
    </edge>
    <edge id=":V0019_0" function="internal">
        <lane id=":V0019_0_0" index="0" speed="21.50" length="19.03" shape="513.33,505.59 516.27,503.24 518.92,499.71 522.39,495.83 527.80,492.42"/>
        <lane id=":V0019_0_1" index="1" speed="21.50" length="19.03" shape="513.33,505.59 516.51,503.68 519.68,501.12 523.61,498.24 529.06,495.36"/>
        <lane id=":V0019_0_2" index="2" speed="21.50" length="19.03" shape="513.33,505.59 530.32,498.30"/>
    </edge>
    <edge id=":V0019_3" function="internal">
        <lane id=":V0019_3_0" index="0" speed="7.51" length="16.29" shape="513.33,505.59 518.73,503.85 522.57,503.93 524.87,505.83 525.60,509.55"/>
        <lane id=":V0019_3_1" index="1" speed="6.70" length="12.68" shape="513.33,505.59 517.32,504.36 520.17,504.61 521.86,506.33 522.40,509.52"/>
        <lane id=":V0019_3_2" index="2" speed="5.80" length="9.15" shape="513.33,505.59 515.92,504.88 517.76,505.29 518.86,506.83 519.20,509.50"/>
    </edge>
    <edge id=":V0020_0" function="internal">
        <lane id=":V0020_0_0" index="0" speed="18.50" length="0.10" shape="262.11,225.59 262.11,225.59"/>
        <lane id=":V0020_0_1" index="1" speed="18.50" length="0.10" shape="259.19,226.90 259.19,226.90"/>
        <lane id=":V0020_0_2" index="2" speed="18.50" length="0.10" shape="256.28,228.22 256.28,228.22"/>
    </edge>
    <edge id=":V0021_0" function="internal">
        <lane id=":V0021_0_0" index="0" speed="4.97" length="1.72" shape="464.22,187.79 462.98,186.60"/>
    </edge>
    <edge id=":V0021_1" function="internal">
        <lane id=":V0021_1_0" index="0" speed="14.50" length="1.95" shape="464.22,187.79 465.92,188.76"/>
        <lane id=":V0021_1_1" index="1" speed="14.50" length="1.95" shape="465.81,185.01 467.50,185.98"/>
        <lane id=":V0021_1_2" index="2" speed="14.50" length="1.95" shape="467.40,182.23 469.09,183.20"/>
    </edge>
    <edge id=":V0022_0" function="internal">
        <lane id=":V0022_0_0" index="0" speed="18.50" length="20.44" shape="305.04,93.19 299.64,90.68 295.55,89.61 291.42,88.52 285.90,85.95"/>
        <lane id=":V0022_0_1" index="1" speed="18.50" length="20.44" shape="306.63,90.42 301.22,87.90 297.13,86.84 293.00,85.75 287.49,83.17"/>
        <lane id=":V0022_0_2" index="2" speed="18.50" length="20.44" shape="306.63,90.42 289.07,80.39"/>
    </edge>
    <edge id=":V0022_3" function="internal">
        <lane id=":V0022_3_0" index="0" speed="5.72" length="9.20" shape="306.63,90.42 304.45,88.75 303.70,87.05 304.36,85.31 306.45,83.53"/>
    </edge>
    <edge id=":V0022_4" function="internal">
        <lane id=":V0022_4_0" index="0" speed="5.72" length="9.20" shape="286.08,92.83 288.16,91.05 288.83,89.31 288.07,87.61 285.90,85.95"/>
        <lane id=":V0022_4_1" index="1" speed="7.43" length="16.51" shape="287.81,95.52 291.55,92.33 292.74,89.21 291.39,86.16 287.49,83.17"/>
    </edge>
    <edge id=":V0022_6" function="internal">
        <lane id=":V0022_6_0" index="0" speed="21.00" length="22.30" shape="287.81,95.52 292.82,91.71 296.26,88.18 299.71,84.66 304.71,80.84"/>
        <lane id=":V0022_6_1" index="1" speed="21.00" length="22.30" shape="287.81,95.52 306.45,83.53"/>
    </edge>
    <edge id=":V0023_0" function="internal">
        <lane id=":V0023_0_0" index="0" speed="19.50" length="28.97" shape="413.36,258.34 408.15,229.84"/>
    </edge>
    <edge id=":V0023_1" function="internal">
        <lane id=":V0023_1_0" index="0" speed="5.47" length="4.16" shape="413.36,258.34 413.06,254.86 413.33,254.25"/>
    </edge>
    <edge id=":V0023_5" function="internal">
        <lane id=":V0023_5_0" index="0" speed="5.47" length="6.30" shape="413.33,254.25 413.76,253.27 415.48,253.57 418.20,255.75"/>
    </edge>
    <edge id=":V0023_2" function="internal">
        <lane id=":V0023_2_0" index="0" speed="5.47" length="10.46" shape="403.31,232.43 406.03,234.62 407.75,234.91 408.45,233.32 408.15,229.84"/>
    </edge>
    <edge id=":V0023_3" function="internal">
        <lane id=":V0023_3_0" index="0" speed="12.50" length="26.91" shape="401.08,234.73 420.43,253.45"/>
        <lane id=":V0023_3_1" index="1" speed="12.50" length="26.91" shape="398.86,237.03 418.20,255.75"/>
    </edge>
    <edge id=":V0024_0" function="internal">
        <lane id=":V0024_0_0" index="0" speed="15.00" length="0.10" shape="322.81,159.02 322.81,159.02"/>
        <lane id=":V0024_0_1" index="1" speed="15.00" length="0.10" shape="320.59,161.32 320.59,161.32"/>
    </edge>
    <edge id=":V0025_0" function="internal">
        <lane id=":V0025_0_0" index="0" speed="7.06" length="7.23" shape="155.61,347.22 155.79,349.28 156.37,350.98 157.37,352.31 158.78,353.26"/>
        <lane id=":V0025_0_1" index="1" speed="8.54" length="10.88" shape="152.41,347.18 152.69,350.19 153.62,352.69 155.19,354.68 157.40,356.15"/>
    </edge>
    <edge id=":V0025_2" function="internal">
        <lane id=":V0025_2_0" index="0" speed="17.50" length="11.89" shape="149.21,347.14 149.67,350.65 150.74,352.96 151.82,355.27 152.28,358.78"/>
        <lane id=":V0025_2_1" index="1" speed="17.50" length="11.89" shape="149.21,347.14 149.08,358.75"/>
    </edge>
    <edge id=":V0025_4" function="internal">
        <lane id=":V0025_4_0" index="0" speed="17.50" length="14.42" shape="144.59,350.02 147.78,350.99 150.91,351.27 154.43,351.73 158.78,353.26"/>
        <lane id=":V0025_4_1" index="1" speed="17.50" length="14.42" shape="144.59,350.02 157.40,356.15"/>
    </edge>
    <edge id=":V0025_6" function="internal">
        <lane id=":V0025_6_0" index="0" speed="8.35" length="10.39" shape="144.59,350.02 146.58,351.38 147.99,353.29 148.82,355.75 149.08,358.75"/>
    </edge>
    <edge id=":V0026_0" function="internal">
        <lane id=":V0026_0_0" index="0" speed="6.85" length="10.63" shape="519.45,287.29 517.39,284.65 515.25,283.25 513.04,283.07 510.76,284.12"/>
    </edge>
    <edge id=":V0026_1" function="internal">
        <lane id=":V0026_1_0" index="0" speed="23.00" length="17.35" shape="522.17,285.59 519.63,280.58 518.30,276.38 517.34,272.76 515.88,269.48"/>
    </edge>
    <edge id=":V0026_2" function="internal">
        <lane id=":V0026_2_0" index="0" speed="3.65" length="4.67" shape="524.88,283.90 524.92,282.46 525.39,281.69 526.28,281.61 527.59,282.20"/>
    </edge>
    <edge id=":V0026_3" function="internal">
        <lane id=":V0026_3_0" index="0" speed="6.66" length="9.03" shape="534.58,270.94 532.81,272.64 531.96,274.51 532.03,276.57 533.02,278.82"/>
        <lane id=":V0026_3_1" index="1" speed="7.47" length="11.61" shape="534.58,270.94 531.66,273.44 529.98,275.87 529.53,278.23 530.31,280.51"/>
        <lane id=":V0026_3_2" index="2" speed="8.24" length="14.36" shape="534.58,270.94 530.51,274.25 528.00,277.23 527.02,279.88 527.59,282.20"/>
    </edge>
    <edge id=":V0026_6" function="internal">
        <lane id=":V0026_6_0" index="0" speed="15.00" length="27.27" shape="534.58,270.94 527.34,275.53 521.57,278.32 516.35,280.72 510.76,284.12"/>
        <lane id=":V0026_6_1" index="1" speed="15.00" length="27.27" shape="532.71,268.34 525.47,272.93 519.70,275.72 514.49,278.12 508.89,281.53"/>
    </edge>
    <edge id=":V0026_8" function="internal">
        <lane id=":V0026_8_0" index="0" speed="8.48" length="16.85" shape="530.84,265.74 525.43,269.20 521.13,270.97 517.95,271.07 515.88,269.48"/>
    </edge>
    <edge id=":V0028_0" function="internal">
        <lane id=":V0028_0_0" index="0" speed="5.22" length="9.38" shape="439.06,169.73 437.39,169.20 436.80,170.12 437.27,172.49 438.82,176.31"/>
    </edge>
    <edge id=":V0028_1" function="internal">
        <lane id=":V0028_1_0" index="0" speed="22.00" length="18.72" shape="439.06,169.73 434.01,167.42 430.24,166.54 426.47,165.65 421.42,163.34"/>
        <lane id=":V0028_1_1" index="1" speed="22.00" length="18.72" shape="440.64,166.95 435.60,164.65 431.83,163.76 428.05,162.87 423.01,160.57"/>
        <lane id=":V0028_1_2" index="2" speed="22.00" length="18.72" shape="440.64,166.95 424.59,157.79"/>
    </edge>
    <edge id=":V0028_4" function="internal">
        <lane id=":V0028_4_0" index="0" speed="23.50" length="24.69" shape="431.56,152.75 434.16,159.63 435.97,166.24 437.39,171.99 438.82,176.31"/>
    </edge>
    <edge id=":V0028_5" function="internal">
        <lane id=":V0028_5_0" index="0" speed="6.63" length="4.53" shape="428.65,154.08 430.17,158.34"/>
        <lane id=":V0028_5_1" index="1" speed="5.46" length="4.16" shape="428.65,154.08 429.80,157.37 429.68,158.04"/>
    </edge>
    <edge id=":V0028_7" function="internal">
        <lane id=":V0028_7_0" index="0" speed="6.63" length="11.72" shape="430.17,158.34 430.55,159.41 430.25,162.27 427.73,162.66 423.01,160.57"/>
    </edge>
    <edge id=":V0028_8" function="internal">
        <lane id=":V0028_8_0" index="0" speed="5.46" length="6.28" shape="429.68,158.04 429.50,159.08 427.77,159.22 424.59,157.79"/>
    </edge>
    <edge id=":V0029_0" function="internal">
        <lane id=":V0029_0_0" index="0" speed="8.50" length="9.41" shape="515.12,335.54 516.60,338.36 518.10,340.43 519.62,341.75 521.18,342.31"/>
    </edge>
    <edge id=":V0029_1" function="internal">
        <lane id=":V0029_1_0" index="0" speed="8.50" length="11.99" shape="509.27,340.91 521.18,342.31"/>
    </edge>
    <edge id=":V0030_0" function="internal">
        <lane id=":V0030_0_0" index="0" speed="3.65" length="2.34" shape="578.13,369.22 578.17,367.78 578.64,367.01"/>
    </edge>
    <edge id=":V0030_2" function="internal">
        <lane id=":V0030_2_0" index="0" speed="3.65" length="2.34" shape="578.64,367.01 579.53,366.93 580.84,367.52"/>
    </edge>
    <edge id=":V0030_1" function="internal">
        <lane id=":V0030_1_0" index="0" speed="5.13" length="7.74" shape="588.47,368.85 580.84,367.52"/>
    </edge>
    <edge id=":V0031_0" function="internal">
        <lane id=":V0031_0_0" index="0" speed="7.27" length="13.05" shape="658.65,347.82 657.69,352.37 657.84,355.72 659.10,357.86 661.47,358.81"/>
    </edge>
    <edge id=":V0031_1" function="internal">
        <lane id=":V0031_1_0" index="0" speed="12.50" length="16.73" shape="655.59,346.91 650.85,362.96"/>
        <lane id=":V0031_1_1" index="1" speed="12.50" length="16.73" shape="652.52,346.00 647.78,362.05"/>
    </edge>
    <edge id=":V0031_3" function="internal">
        <lane id=":V0031_3_0" index="0" speed="12.50" length="19.59" shape="644.05,350.32 650.13,352.04 654.51,354.77 658.01,357.39 661.47,358.81"/>
    </edge>
    <edge id=":V0031_4" function="internal">
        <lane id=":V0031_4_0" index="0" speed="7.54" length="14.12" shape="643.68,353.49 647.74,354.51 650.28,356.43 651.32,359.24 650.85,362.96"/>
        <lane id=":V0031_4_1" index="1" speed="5.94" length="8.30" shape="643.30,356.67 645.78,357.27 647.35,358.36 648.02,359.96 647.78,362.05"/>
    </edge>
    <edge id=":V0032_0" function="internal">
        <lane id=":V0032_0_0" index="0" speed="15.00" length="0.90" shape="626.16,457.79 626.61,457.01"/>
    </edge>
    <edge id=":V0032_1" function="internal">
        <lane id=":V0032_1_0" index="0" speed="16.50" length="12.02" shape="626.16,457.79 622.75,469.31"/>
        <lane id=":V0032_1_1" index="1" speed="16.50" length="12.02" shape="623.09,456.88 619.69,468.40"/>
        <lane id=":V0032_1_2" index="2" speed="16.50" length="12.02" shape="620.02,455.98 616.62,467.50"/>
    </edge>
    <edge id=":V0032_4" function="internal">
        <lane id=":V0032_4_0" index="0" speed="7.74" length="19.76" shape="620.02,455.98 617.12,458.54 612.08,458.39 606.70,456.31 602.77,453.09"/>
        <lane id=":V0032_4_1" index="1" speed="7.30" length="17.38" shape="620.02,455.98 617.54,457.89 613.28,456.99 608.72,454.38 605.35,451.19"/>
    </edge>
    <edge id=":V0032_6" function="internal">
        <lane id=":V0032_6_0" index="0" speed="6.06" length="9.07" shape="598.24,462.21 600.44,460.87 601.50,459.22 601.42,457.26 600.20,455.00"/>
    </edge>
    <edge id=":V0032_7" function="internal">
        <lane id=":V0032_7_0" index="0" speed="21.50" length="28.97" shape="598.24,462.21 607.62,459.28 615.67,458.22 622.10,457.86 626.61,457.01"/>
    </edge>
    <edge id=":V0032_8" function="internal">
        <lane id=":V0032_8_0" index="0" speed="8.23" length="23.03" shape="599.51,465.15 605.57,463.61 612.67,463.32 618.23,464.76 619.69,468.40"/>
        <lane id=":V0032_8_1" index="1" speed="7.15" length="16.98" shape="600.77,468.09 605.44,466.62 610.91,465.68 615.27,465.80 616.62,467.50"/>
    </edge>
    <edge id=":V0033_0" function="internal">
        <lane id=":V0033_0_0" index="0" speed="9.61" length="13.93" shape="525.51,520.61 525.66,525.77 526.24,529.68 527.22,532.33 528.62,533.73"/>
    </edge>
    <edge id=":V0033_1" function="internal">
        <lane id=":V0033_1_0" index="0" speed="15.50" length="17.54" shape="514.50,523.43 519.40,526.33 522.83,529.19 525.62,531.74 528.62,533.73"/>