<?xml version="1.0" encoding="UTF-8"?>

<!-- generated on 2023-06-15 17:10:25 by Eclipse SUMO netconvert Version 1.16.0
<configuration xmlns:xsi="http://www.w3.org/2001/XMLSchema-instance" xsi:noNamespaceSchemaLocation="http://sumo.dlr.de/xsd/netconvertConfiguration.xsd">

    <input>
        <node-files value="data/simulationConfigurations/tmp/sim_18\sim_18.nod.xml"/>
        <edge-files value="data/simulationConfigurations/tmp/sim_18\sim_18.edg.xml"/>
    </input>

    <output>
        <output-file value="data/simulationConfigurations/tmp/sim_18\sim_18.net.xml"/>
    </output>

</configuration>
-->

<net version="1.16" junctionCornerDetail="5" limitTurnSpeed="5.50" xmlns:xsi="http://www.w3.org/2001/XMLSchema-instance" xsi:noNamespaceSchemaLocation="http://sumo.dlr.de/xsd/net_file.xsd">

    <location netOffset="0.00,0.00" convBoundary="0.00,0.00,500.00,400.00" origBoundary="0.00,0.00,500.00,400.00" projParameter="!"/>

    <edge id=":0_0" function="internal">
        <lane id=":0_0_0" index="0" speed="3.65" length="4.67" shape="0.00,301.60 -1.20,300.80 -1.60,300.00 -1.20,299.20 0.00,298.40"/>
    </edge>
    <edge id=":1_0" function="internal">
        <lane id=":1_0_0" index="0" speed="11.89" length="32.62" shape="95.20,116.80 96.15,105.95 99.00,98.20 103.75,93.55 110.40,92.00"/>
        <lane id=":1_0_1" index="1" speed="10.96" length="27.54" shape="98.40,116.80 99.15,107.35 101.40,100.60 105.15,96.55 110.40,95.20"/>
        <lane id=":1_0_2" index="2" speed="10.41" length="24.73" shape="98.40,116.80 99.15,108.75 101.40,103.00 105.15,99.55 110.40,98.40"/>
    </edge>
    <edge id=":1_3" function="internal">
        <lane id=":1_3_0" index="0" speed="6.51" length="9.03" shape="110.40,111.20 107.95,111.55 106.20,112.60 105.15,114.35 104.80,116.80"/>
        <lane id=":1_3_1" index="1" speed="8.00" length="14.19" shape="110.40,108.00 106.55,108.55 103.80,110.20 102.15,112.95 101.60,116.80"/>
    </edge>
    <edge id=":10_0" function="internal">
        <lane id=":10_0_0" index="0" speed="6.51" length="9.03" shape="295.20,113.60 294.85,111.15 293.80,109.40 292.05,108.35 289.60,108.00"/>
    </edge>
    <edge id=":10_1" function="internal">
        <lane id=":10_1_0" index="0" speed="10.41" length="24.73" shape="298.40,113.60 299.15,105.55 301.40,99.80 305.15,96.35 310.40,95.20"/>
        <lane id=":10_1_1" index="1" speed="9.84" length="21.99" shape="298.40,113.60 299.15,106.95 301.40,102.20 305.15,99.35 310.40,98.40"/>
    </edge>
    <edge id=":10_3" function="internal">
        <lane id=":10_3_0" index="0" speed="3.65" length="4.67" shape="298.40,113.60 299.20,112.40 300.00,112.00 300.80,112.40 301.60,113.60"/>
    </edge>
    <edge id=":10_4" function="internal">
        <lane id=":10_4_0" index="0" speed="6.51" length="9.03" shape="310.40,108.00 307.95,108.35 306.20,109.40 305.15,111.15 304.80,113.60"/>
    </edge>
    <edge id=":10_5" function="internal">
        <lane id=":10_5_0" index="0" speed="13.90" length="20.80" shape="310.40,108.00 289.60,108.00"/>
        <lane id=":10_5_1" index="1" speed="13.90" length="20.80" shape="310.40,104.80 289.60,104.80"/>
        <lane id=":10_5_2" index="2" speed="13.90" length="20.80" shape="310.40,101.60 289.60,101.60"/>
    </edge>
    <edge id=":10_8" function="internal">
        <lane id=":10_8_0" index="0" speed="3.65" length="1.44" shape="310.40,101.60 309.20,100.80"/>
    </edge>
    <edge id=":10_14" function="internal">
        <lane id=":10_14_0" index="0" speed="3.65" length="3.23" shape="309.20,100.80 308.80,100.00 309.20,99.20 310.40,98.40"/>
    </edge>
    <edge id=":10_9" function="internal">
        <lane id=":10_9_0" index="0" speed="13.90" length="20.80" shape="289.60,92.00 310.40,92.00"/>
        <lane id=":10_9_1" index="1" speed="13.90" length="20.80" shape="289.60,95.20 310.40,95.20"/>
        <lane id=":10_9_2" index="2" speed="13.90" length="20.80" shape="289.60,98.40 310.40,98.40"/>
    </edge>
    <edge id=":10_12" function="internal">
        <lane id=":10_12_0" index="0" speed="9.84" length="4.01" shape="289.60,98.40 293.55,99.11"/>
    </edge>
    <edge id=":10_13" function="internal">
        <lane id=":10_13_0" index="0" speed="3.65" length="1.44" shape="289.60,98.40 290.80,99.20"/>
    </edge>
    <edge id=":10_15" function="internal">
        <lane id=":10_15_0" index="0" speed="9.84" length="17.98" shape="293.55,99.11 294.85,99.35 298.60,102.20 300.85,106.95 301.60,113.60"/>
    </edge>
    <edge id=":10_16" function="internal">
        <lane id=":10_16_0" index="0" speed="3.65" length="3.23" shape="290.80,99.20 291.20,100.00 290.80,100.80 289.60,101.60"/>
    </edge>
    <edge id=":11_0" function="internal">
        <lane id=":11_0_0" index="0" speed="6.51" length="9.03" shape="295.20,210.40 294.85,207.95 293.80,206.20 292.05,205.15 289.60,204.80"/>
    </edge>
    <edge id=":11_1" function="internal">
        <lane id=":11_1_0" index="0" speed="13.90" length="20.80" shape="295.20,210.40 295.20,189.60"/>
        <lane id=":11_1_1" index="1" speed="13.90" length="20.80" shape="298.40,210.40 298.40,189.60"/>
    </edge>
    <edge id=":11_3" function="internal">
        <lane id=":11_3_0" index="0" speed="9.26" length="5.01" shape="298.40,210.40 299.11,205.44"/>
    </edge>
    <edge id=":11_4" function="internal">
        <lane id=":11_4_0" index="0" speed="3.65" length="1.44" shape="298.40,210.40 299.20,209.20"/>
    </edge>
    <edge id=":11_20" function="internal">
        <lane id=":11_20_0" index="0" speed="9.26" length="14.34" shape="299.11,205.44 299.15,205.15 301.40,201.40 305.15,199.15 310.40,198.40"/>
    </edge>
    <edge id=":11_21" function="internal">
        <lane id=":11_21_0" index="0" speed="3.65" length="3.23" shape="299.20,209.20 300.00,208.80 300.80,209.20 301.60,210.40"/>
    </edge>
    <edge id=":11_5" function="internal">
        <lane id=":11_5_0" index="0" speed="6.51" length="9.03" shape="310.40,204.80 307.95,205.15 306.20,206.20 305.15,207.95 304.80,210.40"/>
    </edge>
    <edge id=":11_6" function="internal">
        <lane id=":11_6_0" index="0" speed="13.90" length="20.80" shape="310.40,204.80 289.60,204.80"/>
        <lane id=":11_6_1" index="1" speed="13.90" length="20.80" shape="310.40,201.60 289.60,201.60"/>
    </edge>
    <edge id=":11_8" function="internal">
        <lane id=":11_8_0" index="0" speed="9.26" length="19.35" shape="310.40,201.60 305.15,200.85 301.40,198.60 299.15,194.85 298.40,189.60"/>
    </edge>
    <edge id=":11_9" function="internal">
        <lane id=":11_9_0" index="0" speed="3.65" length="4.67" shape="310.40,201.60 309.20,200.80 308.80,200.00 309.20,199.20 310.40,198.40"/>
    </edge>
    <edge id=":11_10" function="internal">
        <lane id=":11_10_0" index="0" speed="6.51" length="9.03" shape="304.80,189.60 305.15,192.05 306.20,193.80 307.95,194.85 310.40,195.20"/>
    </edge>
    <edge id=":11_11" function="internal">
        <lane id=":11_11_0" index="0" speed="13.90" length="20.80" shape="304.80,189.60 304.80,210.40"/>
        <lane id=":11_11_1" index="1" speed="13.90" length="20.80" shape="301.60,189.60 301.60,210.40"/>
    </edge>
    <edge id=":11_13" function="internal">
        <lane id=":11_13_0" index="0" speed="9.26" length="5.01" shape="301.60,189.60 300.89,194.56"/>
    </edge>
    <edge id=":11_14" function="internal">
        <lane id=":11_14_0" index="0" speed="3.65" length="1.44" shape="301.60,189.60 300.80,190.80"/>
    </edge>
    <edge id=":11_22" function="internal">
        <lane id=":11_22_0" index="0" speed="9.26" length="14.34" shape="300.89,194.56 300.85,194.85 298.60,198.60 294.85,200.85 289.60,201.60"/>
    </edge>
    <edge id=":11_23" function="internal">
        <lane id=":11_23_0" index="0" speed="3.65" length="3.23" shape="300.80,190.80 300.00,191.20 299.20,190.80 298.40,189.60"/>
    </edge>
    <edge id=":11_15" function="internal">
        <lane id=":11_15_0" index="0" speed="6.51" length="9.03" shape="289.60,195.20 292.05,194.85 293.80,193.80 294.85,192.05 295.20,189.60"/>
    </edge>
    <edge id=":11_16" function="internal">
        <lane id=":11_16_0" index="0" speed="13.90" length="20.80" shape="289.60,195.20 310.40,195.20"/>
        <lane id=":11_16_1" index="1" speed="13.90" length="20.80" shape="289.60,198.40 310.40,198.40"/>
    </edge>
    <edge id=":11_18" function="internal">
        <lane id=":11_18_0" index="0" speed="9.26" length="19.35" shape="289.60,198.40 294.85,199.15 298.60,201.40 300.85,205.15 301.60,210.40"/>
    </edge>
    <edge id=":11_19" function="internal">
        <lane id=":11_19_0" index="0" speed="3.65" length="4.67" shape="289.60,198.40 290.80,199.20 291.20,200.00 290.80,200.80 289.60,201.60"/>
    </edge>
    <edge id=":12_0" function="internal">
        <lane id=":12_0_0" index="0" speed="10.36" length="24.51" shape="295.20,310.40 293.78,307.95 289.53,306.20 282.45,305.15 272.53,304.80"/>
    </edge>
    <edge id=":12_1" function="internal">
        <lane id=":12_1_0" index="0" speed="13.90" length="31.50" shape="295.20,310.40 293.88,304.92 289.92,299.50 283.33,294.14 274.09,288.84"/>
    </edge>
    <edge id=":12_2" function="internal">
        <lane id=":12_2_0" index="0" speed="13.90" length="20.80" shape="295.20,310.40 295.20,289.60"/>
        <lane id=":12_2_1" index="1" speed="13.90" length="20.80" shape="298.40,310.40 298.40,289.60"/>
    </edge>
    <edge id=":12_4" function="internal">
        <lane id=":12_4_0" index="0" speed="9.26" length="5.01" shape="298.40,310.40 299.11,305.44"/>
    </edge>
    <edge id=":12_5" function="internal">
        <lane id=":12_5_0" index="0" speed="3.65" length="1.44" shape="298.40,310.40 299.20,309.20"/>
    </edge>
    <edge id=":12_30" function="internal">
        <lane id=":12_30_0" index="0" speed="9.26" length="14.34" shape="299.11,305.44 299.15,305.15 301.40,301.40 305.15,299.15 310.40,298.40"/>
    </edge>
    <edge id=":12_31" function="internal">
        <lane id=":12_31_0" index="0" speed="3.65" length="3.23" shape="299.20,309.20 300.00,308.80 300.80,309.20 301.60,310.40"/>
    </edge>
    <edge id=":12_6" function="internal">
        <lane id=":12_6_0" index="0" speed="6.51" length="9.03" shape="310.40,304.80 307.95,305.15 306.20,306.20 305.15,307.95 304.80,310.40"/>
    </edge>
    <edge id=":12_7" function="internal">
        <lane id=":12_7_0" index="0" speed="13.90" length="37.87" shape="310.40,304.80 272.53,304.80"/>
        <lane id=":12_7_1" index="1" speed="13.90" length="37.87" shape="310.40,301.60 272.53,301.60"/>
    </edge>
    <edge id=":12_9" function="internal">
        <lane id=":12_9_0" index="0" speed="13.90" length="38.71" shape="310.40,301.60 301.77,300.23 291.85,296.89 282.13,292.72 274.09,288.84"/>
    </edge>
    <edge id=":12_10" function="internal">
        <lane id=":12_10_0" index="0" speed="9.26" length="19.35" shape="310.40,301.60 305.15,300.85 301.40,298.60 299.15,294.85 298.40,289.60"/>
    </edge>
    <edge id=":12_11" function="internal">
        <lane id=":12_11_0" index="0" speed="3.65" length="4.67" shape="310.40,301.60 309.20,300.80 308.80,300.00 309.20,299.20 310.40,298.40"/>
    </edge>
    <edge id=":12_12" function="internal">
        <lane id=":12_12_0" index="0" speed="6.51" length="9.03" shape="304.80,289.60 305.15,292.05 306.20,293.80 307.95,294.85 310.40,295.20"/>
    </edge>
    <edge id=":12_13" function="internal">
        <lane id=":12_13_0" index="0" speed="13.90" length="20.80" shape="304.80,289.60 304.80,310.40"/>
        <lane id=":12_13_1" index="1" speed="13.90" length="20.80" shape="301.60,289.60 301.60,310.40"/>
    </edge>
    <edge id=":12_15" function="internal">
        <lane id=":12_15_0" index="0" speed="12.18" length="2.29" shape="301.60,289.60 300.85,291.77"/>
    </edge>
    <edge id=":12_16" function="internal">
        <lane id=":12_16_0" index="0" speed="9.77" length="1.93" shape="301.60,289.60 300.22,290.95"/>
    </edge>
    <edge id=":12_17" function="internal">
        <lane id=":12_17_0" index="0" speed="3.65" length="1.44" shape="301.60,289.60 300.80,290.80"/>
    </edge>
    <edge id=":12_32" function="internal">
        <lane id=":12_32_0" index="0" speed="12.18" length="31.98" shape="300.85,291.77 299.78,294.85 294.33,298.60 285.25,300.85 272.53,301.60"/>
    </edge>
    <edge id=":12_33" function="internal">
        <lane id=":12_33_0" index="0" speed="9.77" length="27.43" shape="300.22,290.95 298.42,292.69 290.83,293.07 281.74,291.52 274.09,288.84"/>
    </edge>
    <edge id=":12_34" function="internal">
        <lane id=":12_34_0" index="0" speed="3.65" length="3.23" shape="300.80,290.80 300.00,291.20 299.20,290.80 298.40,289.60"/>
    </edge>
    <edge id=":12_18" function="internal">
        <lane id=":12_18_0" index="0" speed="6.90" length="21.05" shape="274.40,288.04 266.84,286.24 264.08,286.28 266.12,288.14 272.94,291.84"/>
    </edge>
    <edge id=":12_19" function="internal">
        <lane id=":12_19_0" index="0" speed="8.97" length="21.80" shape="274.40,288.04 283.50,290.27 290.00,291.27 293.90,291.05 295.20,289.60"/>
    </edge>
    <edge id=":12_20" function="internal">
        <lane id=":12_20_0" index="0" speed="13.90" length="37.37" shape="274.40,288.04 282.69,290.27 292.27,292.61 301.91,294.45 310.40,295.20"/>
        <lane id=":12_20_1" index="1" speed="13.90" length="37.37" shape="273.25,291.05 281.72,293.30 291.69,295.71 301.73,297.62 310.40,298.40"/>
    </edge>
    <edge id=":12_22" function="internal">
        <lane id=":12_22_0" index="0" speed="13.90" length="36.25" shape="273.25,291.05 285.65,295.15 294.51,299.75 299.83,304.83 301.60,310.40"/>
    </edge>
    <edge id=":12_23" function="internal">
        <lane id=":12_23_0" index="0" speed="5.95" length="14.72" shape="273.25,291.05 276.35,293.35 277.22,296.90 275.92,300.17 272.53,301.60"/>
    </edge>
    <edge id=":12_24" function="internal">
        <lane id=":12_24_0" index="0" speed="4.77" length="8.06" shape="272.53,295.20 275.23,294.99 276.20,294.36 275.44,293.31 272.94,291.84"/>
    </edge>
    <edge id=":12_25" function="internal">
        <lane id=":12_25_0" index="0" speed="10.36" length="24.51" shape="272.53,295.20 282.45,294.85 289.53,293.80 293.78,292.05 295.20,289.60"/>
    </edge>
    <edge id=":12_26" function="internal">
        <lane id=":12_26_0" index="0" speed="13.90" length="37.87" shape="272.53,295.20 310.40,295.20"/>
        <lane id=":12_26_1" index="1" speed="13.90" length="37.87" shape="272.53,298.40 310.40,298.40"/>
    </edge>
    <edge id=":12_28" function="internal">
        <lane id=":12_28_0" index="0" speed="12.18" length="34.27" shape="272.53,298.40 285.25,299.15 294.33,301.40 299.78,305.15 301.60,310.40"/>
    </edge>
    <edge id=":12_29" function="internal">
        <lane id=":12_29_0" index="0" speed="3.65" length="4.67" shape="272.53,298.40 273.73,299.20 274.13,300.00 273.73,300.80 272.53,301.60"/>
    </edge>
    <edge id=":13_0" function="internal">
        <lane id=":13_0_0" index="0" speed="13.90" length="20.80" shape="310.40,404.80 289.60,404.80"/>
        <lane id=":13_0_1" index="1" speed="13.90" length="20.80" shape="310.40,401.60 289.60,401.60"/>
    </edge>
    <edge id=":13_2" function="internal">
        <lane id=":13_2_0" index="0" speed="9.26" length="5.01" shape="310.40,401.60 305.44,400.89"/>
    </edge>
    <edge id=":13_3" function="internal">
        <lane id=":13_3_0" index="0" speed="3.65" length="1.44" shape="310.40,401.60 309.20,400.80"/>
    </edge>
    <edge id=":13_11" function="internal">
        <lane id=":13_11_0" index="0" speed="9.26" length="14.34" shape="305.44,400.89 305.15,400.85 301.40,398.60 299.15,394.85 298.40,389.60"/>
    </edge>
    <edge id=":13_12" function="internal">
        <lane id=":13_12_0" index="0" speed="3.65" length="3.23" shape="309.20,400.80 308.80,400.00 309.20,399.20 310.40,398.40"/>
    </edge>
    <edge id=":13_4" function="internal">
        <lane id=":13_4_0" index="0" speed="6.51" length="9.03" shape="304.80,389.60 305.15,392.05 306.20,393.80 307.95,394.85 310.40,395.20"/>
    </edge>
    <edge id=":13_5" function="internal">
        <lane id=":13_5_0" index="0" speed="9.26" length="19.35" shape="301.60,389.60 300.85,394.85 298.60,398.60 294.85,400.85 289.60,401.60"/>
    </edge>
    <edge id=":13_6" function="internal">
        <lane id=":13_6_0" index="0" speed="3.65" length="4.67" shape="301.60,389.60 300.80,390.80 300.00,391.20 299.20,390.80 298.40,389.60"/>
    </edge>
    <edge id=":13_7" function="internal">
        <lane id=":13_7_0" index="0" speed="6.51" length="9.03" shape="289.60,395.20 292.05,394.85 293.80,393.80 294.85,392.05 295.20,389.60"/>
    </edge>
    <edge id=":13_8" function="internal">
        <lane id=":13_8_0" index="0" speed="13.90" length="20.80" shape="289.60,395.20 310.40,395.20"/>
        <lane id=":13_8_1" index="1" speed="13.90" length="20.80" shape="289.60,398.40 310.40,398.40"/>
    </edge>
    <edge id=":13_10" function="internal">
        <lane id=":13_10_0" index="0" speed="3.65" length="1.44" shape="289.60,398.40 290.80,399.20"/>
    </edge>
    <edge id=":13_13" function="internal">
        <lane id=":13_13_0" index="0" speed="3.65" length="3.23" shape="290.80,399.20 291.20,400.00 290.80,400.80 289.60,401.60"/>
    </edge>
    <edge id=":15_0" function="internal">
        <lane id=":15_0_0" index="0" speed="6.51" length="9.03" shape="395.20,113.60 394.85,111.15 393.80,109.40 392.05,108.35 389.60,108.00"/>
        <lane id=":15_0_1" index="1" speed="8.00" length="14.19" shape="398.40,113.60 397.85,109.75 396.20,107.00 393.45,105.35 389.60,104.80"/>
        <lane id=":15_0_2" index="2" speed="8.67" length="16.85" shape="398.40,113.60 397.85,108.35 396.20,104.60 393.45,102.35 389.60,101.60"/>
    </edge>
    <edge id=":15_3" function="internal">
        <lane id=":15_3_0" index="0" speed="11.39" length="29.85" shape="389.60,92.00 396.25,93.35 401.00,97.40 403.85,104.15 404.80,113.60"/>
        <lane id=":15_3_1" index="1" speed="10.41" length="24.73" shape="389.60,95.20 394.85,96.35 398.60,99.80 400.85,105.55 401.60,113.60"/>
    </edge>
    <edge id=":16_0" function="internal">
        <lane id=":16_0_0" index="0" speed="6.51" length="9.03" shape="395.20,210.40 394.85,207.95 393.80,206.20 392.05,205.15 389.60,204.80"/>
    </edge>
    <edge id=":16_1" function="internal">
        <lane id=":16_1_0" index="0" speed="13.90" length="20.80" shape="395.20,210.40 395.20,189.60"/>
        <lane id=":16_1_1" index="1" speed="13.90" length="20.80" shape="398.40,210.40 398.40,189.60"/>
    </edge>
    <edge id=":16_3" function="internal">
        <lane id=":16_3_0" index="0" speed="9.26" length="5.01" shape="398.40,210.40 399.11,205.44"/>
    </edge>
    <edge id=":16_4" function="internal">
        <lane id=":16_4_0" index="0" speed="3.65" length="1.44" shape="398.40,210.40 399.20,209.20"/>
    </edge>
    <edge id=":16_20" function="internal">
        <lane id=":16_20_0" index="0" speed="9.26" length="14.34" shape="399.11,205.44 399.15,205.15 401.40,201.40 405.15,199.15 410.40,198.40"/>
    </edge>
    <edge id=":16_21" function="internal">
        <lane id=":16_21_0" index="0" speed="3.65" length="3.23" shape="399.20,209.20 400.00,208.80 400.80,209.20 401.60,210.40"/>
    </edge>
    <edge id=":16_5" function="internal">
        <lane id=":16_5_0" index="0" speed="6.51" length="9.03" shape="410.40,204.80 407.95,205.15 406.20,206.20 405.15,207.95 404.80,210.40"/>
    </edge>
    <edge id=":16_6" function="internal">
        <lane id=":16_6_0" index="0" speed="13.90" length="20.80" shape="410.40,204.80 389.60,204.80"/>
        <lane id=":16_6_1" index="1" speed="13.90" length="20.80" shape="410.40,201.60 389.60,201.60"/>
    </edge>
    <edge id=":16_8" function="internal">
        <lane id=":16_8_0" index="0" speed="9.26" length="19.35" shape="410.40,201.60 405.15,200.85 401.40,198.60 399.15,194.85 398.40,189.60"/>
    </edge>
    <edge id=":16_9" function="internal">
        <lane id=":16_9_0" index="0" speed="3.65" length="4.67" shape="410.40,201.60 409.20,200.80 408.80,200.00 409.20,199.20 410.40,198.40"/>
    </edge>
    <edge id=":16_10" function="internal">
        <lane id=":16_10_0" index="0" speed="6.51" length="9.03" shape="404.80,189.60 405.15,192.05 406.20,193.80 407.95,194.85 410.40,195.20"/>
    </edge>
    <edge id=":16_11" function="internal">
        <lane id=":16_11_0" index="0" speed="13.90" length="20.80" shape="404.80,189.60 404.80,210.40"/>
        <lane id=":16_11_1" index="1" speed="13.90" length="20.80" shape="401.60,189.60 401.60,210.40"/>
    </edge>
    <edge id=":16_13" function="internal">
        <lane id=":16_13_0" index="0" speed="9.26" length="5.01" shape="401.60,189.60 400.89,194.56"/>
    </edge>
    <edge id=":16_14" function="internal">
        <lane id=":16_14_0" index="0" speed="3.65" length="1.44" shape="401.60,189.60 400.80,190.80"/>
    </edge>
    <edge id=":16_22" function="internal">
        <lane id=":16_22_0" index="0" speed="9.26" length="14.34" shape="400.89,194.56 400.85,194.85 398.60,198.60 394.85,200.85 389.60,201.60"/>
    </edge>
    <edge id=":16_23" function="internal">
        <lane id=":16_23_0" index="0" speed="3.65" length="3.23" shape="400.80,190.80 400.00,191.20 399.20,190.80 398.40,189.60"/>
    </edge>
    <edge id=":16_15" function="internal">
        <lane id=":16_15_0" index="0" speed="6.51" length="9.03" shape="389.60,195.20 392.05,194.85 393.80,193.80 394.85,192.05 395.20,189.60"/>
    </edge>
    <edge id=":16_16" function="internal">
        <lane id=":16_16_0" index="0" speed="13.90" length="20.80" shape="389.60,195.20 410.40,195.20"/>
        <lane id=":16_16_1" index="1" speed="13.90" length="20.80" shape="389.60,198.40 410.40,198.40"/>
    </edge>
    <edge id=":16_18" function="internal">
        <lane id=":16_18_0" index="0" speed="9.26" length="19.35" shape="389.60,198.40 394.85,199.15 398.60,201.40 400.85,205.15 401.60,210.40"/>
    </edge>
    <edge id=":16_19" function="internal">
        <lane id=":16_19_0" index="0" speed="3.65" length="4.67" shape="389.60,198.40 390.80,199.20 391.20,200.00 390.80,200.80 389.60,201.60"/>
    </edge>
    <edge id=":17_0" function="internal">
        <lane id=":17_0_0" index="0" speed="6.51" length="9.03" shape="395.20,310.40 394.85,307.95 393.80,306.20 392.05,305.15 389.60,304.80"/>
    </edge>
    <edge id=":17_1" function="internal">
        <lane id=":17_1_0" index="0" speed="13.90" length="20.80" shape="395.20,310.40 395.20,289.60"/>
        <lane id=":17_1_1" index="1" speed="13.90" length="20.80" shape="398.40,310.40 398.40,289.60"/>
    </edge>
    <edge id=":17_3" function="internal">
        <lane id=":17_3_0" index="0" speed="3.65" length="1.44" shape="398.40,310.40 399.20,309.20"/>
    </edge>
    <edge id=":17_11" function="internal">
        <lane id=":17_11_0" index="0" speed="3.65" length="3.23" shape="399.20,309.20 400.00,308.80 400.80,309.20 401.60,310.40"/>
    </edge>
    <edge id=":17_4" function="internal">
        <lane id=":17_4_0" index="0" speed="13.90" length="20.80" shape="404.80,289.60 404.80,310.40"/>
        <lane id=":17_4_1" index="1" speed="13.90" length="20.80" shape="401.60,289.60 401.60,310.40"/>
    </edge>
    <edge id=":17_6" function="internal">
        <lane id=":17_6_0" index="0" speed="9.26" length="5.01" shape="401.60,289.60 400.89,294.56"/>
    </edge>
    <edge id=":17_7" function="internal">
        <lane id=":17_7_0" index="0" speed="3.65" length="1.44" shape="401.60,289.60 400.80,290.80"/>
    </edge>
    <edge id=":17_12" function="internal">
        <lane id=":17_12_0" index="0" speed="9.26" length="14.34" shape="400.89,294.56 400.85,294.85 398.60,298.60 394.85,300.85 389.60,301.60"/>
    </edge>
    <edge id=":17_13" function="internal">
        <lane id=":17_13_0" index="0" speed="3.65" length="3.23" shape="400.80,290.80 400.00,291.20 399.20,290.80 398.40,289.60"/>
    </edge>
    <edge id=":17_8" function="internal">
        <lane id=":17_8_0" index="0" speed="6.51" length="9.03" shape="389.60,295.20 392.05,294.85 393.80,293.80 394.85,292.05 395.20,289.60"/>
    </edge>
    <edge id=":17_9" function="internal">
        <lane id=":17_9_0" index="0" speed="9.26" length="19.35" shape="389.60,298.40 394.85,299.15 398.60,301.40 400.85,305.15 401.60,310.40"/>
    </edge>
    <edge id=":17_10" function="internal">
        <lane id=":17_10_0" index="0" speed="3.65" length="4.67" shape="389.60,298.40 390.80,299.20 391.20,300.00 390.80,300.80 389.60,301.60"/>
    </edge>
    <edge id=":18_0" function="internal">
        <lane id=":18_0_0" index="0" speed="8.96" length="18.06" shape="404.80,393.60 404.10,398.50 402.00,402.00 398.50,404.10 393.60,404.80"/>
        <lane id=":18_0_1" index="1" speed="7.66" length="12.90" shape="401.60,393.60 401.10,397.10 399.60,399.60 397.10,401.10 393.60,401.60"/>
    </edge>
    <edge id=":18_2" function="internal">
        <lane id=":18_2_0" index="0" speed="3.90" length="2.58" shape="393.60,395.20 394.30,395.10 394.80,394.80 395.10,394.30 395.20,393.60"/>
        <lane id=":18_2_1" index="1" speed="6.08" length="7.74" shape="393.60,398.40 395.70,398.10 397.20,397.20 398.10,395.70 398.40,393.60"/>
    </edge>
    <edge id=":19_0" function="internal">
        <lane id=":19_0_0" index="0" speed="3.65" length="4.67" shape="500.00,198.40 501.20,199.20 501.60,200.00 501.20,200.80 500.00,201.60"/>
    </edge>
    <edge id=":2_0" function="internal">
        <lane id=":2_0_0" index="0" speed="13.90" length="24.76" shape="95.20,214.36 95.20,189.60"/>
        <lane id=":2_0_1" index="1" speed="13.90" length="24.76" shape="98.40,214.36 98.40,189.60"/>
    </edge>
    <edge id=":2_2" function="internal">
        <lane id=":2_2_0" index="0" speed="11.00" length="4.38" shape="98.40,214.36 99.11,210.03"/>
    </edge>
    <edge id=":2_3" function="internal">
        <lane id=":2_3_0" index="0" speed="3.65" length="1.44" shape="98.40,214.36 99.20,213.16"/>
    </edge>
    <edge id=":2_15" function="internal">
        <lane id=":2_15_0" index="0" speed="11.00" length="23.35" shape="99.11,210.03 99.55,207.37 103.00,202.39 108.75,199.40 116.80,198.40"/>
    </edge>
    <edge id=":2_16" function="internal">
        <lane id=":2_16_0" index="0" speed="3.65" length="3.23" shape="99.20,213.16 100.00,212.76 100.80,213.16 101.60,214.36"/>
    </edge>
    <edge id=":2_4" function="internal">
        <lane id=":2_4_0" index="0" speed="6.50" length="12.18" shape="114.23,212.48 110.10,210.83 107.16,210.59 105.39,211.77 104.80,214.36"/>
    </edge>
    <edge id=":2_5" function="internal">
        <lane id=":2_5_0" index="0" speed="13.90" length="31.30" shape="114.23,212.48 105.90,207.48 99.96,202.00 96.39,196.04 95.20,189.60"/>
        <lane id=":2_5_1" index="1" speed="13.60" length="27.76" shape="115.66,209.62 108.11,205.13 102.72,200.30 99.48,195.12 98.40,189.60"/>
    </edge>
    <edge id=":2_7" function="internal">
        <lane id=":2_7_0" index="0" speed="6.28" length="15.41" shape="115.66,209.62 112.59,206.68 111.78,202.96 113.19,199.76 116.80,198.40"/>
    </edge>
    <edge id=":2_8" function="internal">
        <lane id=":2_8_0" index="0" speed="9.44" length="20.17" shape="116.80,204.80 110.15,205.40 105.40,207.19 102.55,210.17 101.60,214.36"/>
    </edge>
    <edge id=":2_9" function="internal">
        <lane id=":2_9_0" index="0" speed="10.41" length="24.73" shape="116.80,201.60 108.75,200.85 103.00,198.60 99.55,194.85 98.40,189.60"/>
    </edge>
    <edge id=":2_10" function="internal">
        <lane id=":2_10_0" index="0" speed="3.65" length="4.67" shape="116.80,201.60 115.60,200.80 115.20,200.00 115.60,199.20 116.80,198.40"/>
    </edge>
    <edge id=":2_11" function="internal">
        <lane id=":2_11_0" index="0" speed="8.10" length="14.57" shape="104.80,189.60 105.55,192.05 107.80,193.80 111.55,194.85 116.80,195.20"/>
    </edge>
    <edge id=":2_12" function="internal">
        <lane id=":2_12_0" index="0" speed="13.90" length="24.76" shape="104.80,189.60 104.80,214.36"/>
        <lane id=":2_12_1" index="1" speed="13.90" length="24.76" shape="101.60,189.60 101.60,214.36"/>
    </edge>
    <edge id=":2_14" function="internal">
        <lane id=":2_14_0" index="0" speed="3.65" length="1.44" shape="101.60,189.60 100.80,190.80"/>
    </edge>
    <edge id=":2_17" function="internal">
        <lane id=":2_17_0" index="0" speed="3.65" length="3.23" shape="100.80,190.80 100.00,191.20 99.20,190.80 98.40,189.60"/>
    </edge>
    <edge id=":3_0" function="internal">
        <lane id=":3_0_0" index="0" speed="6.51" length="9.03" shape="95.20,310.40 94.85,307.95 93.80,306.20 92.05,305.15 89.60,304.80"/>
    </edge>
    <edge id=":3_1" function="internal">
        <lane id=":3_1_0" index="0" speed="13.90" length="20.80" shape="95.20,310.40 95.20,289.60"/>
        <lane id=":3_1_1" index="1" speed="13.90" length="20.80" shape="98.40,310.40 98.40,289.60"/>
    </edge>
    <edge id=":3_3" function="internal">
        <lane id=":3_3_0" index="0" speed="9.26" length="5.01" shape="98.40,310.40 99.11,305.44"/>
    </edge>
    <edge id=":3_4" function="internal">
        <lane id=":3_4_0" index="0" speed="3.65" length="1.44" shape="98.40,310.40 99.20,309.20"/>
    </edge>
    <edge id=":3_20" function="internal">
        <lane id=":3_20_0" index="0" speed="9.26" length="14.34" shape="99.11,305.44 99.15,305.15 101.40,301.40 105.15,299.15 110.40,298.40"/>
    </edge>
    <edge id=":3_21" function="internal">
        <lane id=":3_21_0" index="0" speed="3.65" length="3.23" shape="99.20,309.20 100.00,308.80 100.80,309.20 101.60,310.40"/>
    </edge>
    <edge id=":3_5" function="internal">
        <lane id=":3_5_0" index="0" speed="6.51" length="9.03" shape="110.40,304.80 107.95,305.15 106.20,306.20 105.15,307.95 104.80,310.40"/>
    </edge>
    <edge id=":3_6" function="internal">
        <lane id=":3_6_0" index="0" speed="13.90" length="20.80" shape="110.40,304.80 89.60,304.80"/>
        <lane id=":3_6_1" index="1" speed="13.90" length="20.80" shape="110.40,301.60 89.60,301.60"/>
    </edge>