<configuration><input><net-file value="sim_18.net.xml" /><route-files value="sim_18.rou.xml" /></input><time><begin value="0" /></time></configuration>