<?xml version="1.0" encoding="UTF-8"?>

<!-- generated on 2023-06-27 00:28:50 by Eclipse SUMO netconvert Version 1.16.0
<configuration xmlns:xsi="http://www.w3.org/2001/XMLSchema-instance" xsi:noNamespaceSchemaLocation="http://sumo.dlr.de/xsd/netconvertConfiguration.xsd">

    <input>
        <node-files value="data/simulationConfigurations/optimized\optimized.nod.xml"/>
        <edge-files value="data/simulationConfigurations/optimized\optimized.edg.xml"/>
    </input>

    <output>
        <output-file value="data/simulationConfigurations/optimized\optimized.net.xml"/>
    </output>

</configuration>
-->

<net version="1.16" junctionCornerDetail="5" limitTurnSpeed="5.50" xmlns:xsi="http://www.w3.org/2001/XMLSchema-instance" xsi:noNamespaceSchemaLocation="http://sumo.dlr.de/xsd/net_file.xsd">

    <location netOffset="0.00,0.00" convBoundary="0.00,0.00,150.00,100.00" origBoundary="0.00,0.00,150.00,100.00" projParameter="!"/>

    <edge id=":V0001_0" function="internal">
        <lane id=":V0001_0_0" index="0" speed="5.34" length="10.58" shape="25.87,17.06 21.96,16.01 20.06,16.16 20.17,17.49 22.28,20.02"/>
    </edge>
    <edge id=":V0001_1" function="internal">
        <lane id=":V0001_1_0" index="0" speed="9.50" length="25.47" shape="26.08,13.75 15.37,10.28 7.72,8.03 3.13,7.01 1.60,7.20"/>
    </edge>
    <edge id=":V0001_2" function="internal">
        <lane id=":V0001_2_0" index="0" speed="6.50" length="17.63" shape="26.29,10.45 21.96,7.15 20.65,4.04 22.34,1.12 27.05,-1.60"/>
    </edge>
    <edge id=":V0002_0" function="internal">
        <lane id=":V0002_0_0" index="0" speed="5.59" length="11.79" shape="48.40,31.87 48.10,27.75 47.21,26.17 45.72,27.13 43.63,30.63"/>
    </edge>
    <edge id=":V0002_1" function="internal">
        <lane id=":V0002_1_0" index="0" speed="10.75" length="32.95" shape="48.40,31.87 48.98,22.98 50.45,12.17 52.36,3.18 54.30,-0.25"/>
    </edge>
    <edge id=":V0002_2" function="internal">
        <lane id=":V0002_2_0" index="0" speed="14.95" length="14.44" shape="41.47,-1.60 44.86,-2.68 48.00,-4.89 51.59,-6.63 56.32,-6.32"/>
        <lane id=":V0002_2_1" index="1" speed="14.95" length="14.44" shape="41.47,-1.60 44.82,-2.17 47.79,-3.27 51.06,-3.95 55.31,-3.29"/>
        <lane id=":V0002_2_2" index="2" speed="14.95" length="14.44" shape="41.47,-1.60 44.73,-1.68 47.47,-1.69 50.42,-1.32 54.30,-0.25"/>
    </edge>
    <edge id=":V0002_5" function="internal">
        <lane id=":V0002_5_0" index="0" speed="10.23" length="32.33" shape="41.47,-1.60 44.64,2.06 45.06,10.72 43.54,20.87 40.87,29.00"/>
        <lane id=":V0002_5_1" index="1" speed="10.35" length="33.08" shape="41.47,-1.60 45.87,0.89 45.98,7.45 42.99,16.73 38.10,27.37"/>
    </edge>
    <edge id=":V0002_7" function="internal">
        <lane id=":V0002_7_0" index="0" speed="15.44" length="35.94" shape="28.02,19.72 38.76,9.25 46.88,1.93 52.40,-2.25 55.31,-3.29"/>
    </edge>
    <edge id=":V0002_8" function="internal">
        <lane id=":V0002_8_0" index="0" speed="6.64" length="18.49" shape="28.02,19.72 33.41,17.85 36.89,18.50 38.45,21.68 38.10,27.37"/>
    </edge>
    <edge id=":V0003_0" function="internal">
        <lane id=":V0003_0_0" index="0" speed="5.53" length="6.23" shape="22.42,20.16 23.73,21.11 25.08,21.37 26.46,20.96 27.88,19.86"/>
    </edge>
    <edge id=":V0003_1" function="internal">
        <lane id=":V0003_1_0" index="0" speed="13.50" length="23.56" shape="22.42,20.16 39.08,36.82"/>
    </edge>
    <edge id=":V0003_2" function="internal">
        <lane id=":V0003_2_0" index="0" speed="9.45" length="23.13" shape="22.42,20.16 25.41,23.33 28.78,27.56 32.09,32.91 34.87,39.42"/>
    </edge>
    <edge id=":V0003_3" function="internal">
        <lane id=":V0003_3_0" index="0" speed="14.50" length="9.67" shape="21.04,26.70 27.88,19.86"/>
    </edge>
    <edge id=":V0003_4" function="internal">
        <lane id=":V0003_4_0" index="0" speed="9.82" length="21.90" shape="21.04,26.70 23.65,25.84 27.53,27.25 32.67,30.90 39.08,36.82"/>
    </edge>
    <edge id=":V0003_5" function="internal">
        <lane id=":V0003_5_0" index="0" speed="8.11" length="19.78" shape="21.04,26.70 23.46,25.81 26.07,27.80 28.86,32.68 31.83,40.43"/>
    </edge>
    <edge id=":V0004_0" function="internal">
        <lane id=":V0004_0_0" index="0" speed="5.47" length="9.74" shape="1.60,38.27 1.95,41.37 2.99,42.78 4.73,42.52 7.16,40.58"/>
    </edge>
    <edge id=":V0004_1" function="internal">
        <lane id=":V0004_1_0" index="0" speed="7.65" length="12.89" shape="1.60,38.27 1.95,42.70 3.00,45.87 4.75,47.77 7.20,48.40"/>
    </edge>
    <edge id=":V0004_2" function="internal">
        <lane id=":V0004_2_0" index="0" speed="15.00" length="15.73" shape="1.60,38.27 1.60,54.00"/>
    </edge>
    <edge id=":V0005_0" function="internal">
        <lane id=":V0005_0_0" index="0" speed="16.00" length="18.93" shape="48.40,57.20 48.40,38.27"/>
    </edge>
    <edge id=":V0005_1" function="internal">
        <lane id=":V0005_1_0" index="0" speed="7.33" length="11.73" shape="48.40,57.20 48.75,53.35 49.80,50.60 51.55,48.95 54.00,48.40"/>
    </edge>
    <edge id=":V0005_2" function="internal">
        <lane id=":V0005_2_0" index="0" speed="5.47" length="9.74" shape="42.84,40.58 45.27,42.52 47.01,42.78 48.05,41.37 48.40,38.27"/>
    </edge>
    <edge id=":V0005_3" function="internal">
        <lane id=":V0005_3_0" index="0" speed="12.23" length="13.83" shape="42.84,40.58 46.47,44.00 49.54,46.44 52.05,47.91 54.00,48.40"/>
    </edge>
    <edge id=":V0005_4" function="internal">
        <lane id=":V0005_4_0" index="0" speed="7.91" length="13.85" shape="41.47,48.40 44.50,47.77 46.67,45.87 47.97,42.70 48.40,38.27"/>
    </edge>
    <edge id=":V0005_5" function="internal">
        <lane id=":V0005_5_0" index="0" speed="12.00" length="12.53" shape="41.47,48.40 54.00,48.40"/>
    </edge>
    <edge id=":V0005_6" function="internal">
        <lane id=":V0005_6_0" index="0" speed="12.50" length="17.97" shape="42.84,54.90 45.27,51.77 47.01,47.96 48.05,43.46 48.40,38.27"/>
    </edge>
    <edge id=":V0005_7" function="internal">
        <lane id=":V0005_7_0" index="0" speed="11.50" length="13.19" shape="42.84,54.90 45.97,52.05 48.88,50.02 51.55,48.81 54.00,48.40"/>
    </edge>
    <edge id=":V0006_0" function="internal">
        <lane id=":V0006_0_0" index="0" speed="6.51" length="9.03" shape="26.70,78.96 25.21,76.98 24.72,75.00 25.21,73.02 26.70,71.04"/>
    </edge>
    <edge id=":V0006_1" function="internal">
        <lane id=":V0006_1_0" index="0" speed="19.50" length="11.20" shape="18.78,78.96 26.70,71.04"/>
    </edge>
    <edge id=":V0007_0" function="internal">
        <lane id=":V0007_0_0" index="0" speed="4.20" length="6.15" shape="11.56,94.76 6.57,91.16"/>
    </edge>
    <edge id=":V0007_1" function="internal">
        <lane id=":V0007_1_0" index="0" speed="5.76" length="9.28" shape="6.30,90.97 4.97,94.22 4.67,96.54 5.41,97.94 7.20,98.40"/>
    </edge>
    <edge id=":V0007_2" function="internal">
        <lane id=":V0007_2_0" index="0" speed="5.15" length="8.41" shape="1.60,89.60 1.91,92.15 2.84,93.26 4.40,92.93 6.57,91.16"/>
    </edge>
    <edge id=":V0007_3" function="internal">
        <lane id=":V0007_3_0" index="0" speed="7.33" length="11.73" shape="1.60,89.60 1.95,93.45 3.00,96.20 4.75,97.85 7.20,98.40"/>
    </edge>
    <edge id=":V0008_0" function="internal">
        <lane id=":V0008_0_0" index="0" speed="6.41" length="17.08" shape="53.54,95.43 51.29,89.70 49.68,87.93 48.72,90.12 48.40,96.26"/>
    </edge>
    <edge id=":V0008_1" function="internal">
        <lane id=":V0008_1_0" index="0" speed="6.53" length="16.79" shape="50.34,95.95 50.97,99.49 49.56,100.16 46.09,97.94 40.58,92.84"/>
    </edge>
    <edge id=":V0008_2" function="internal">
        <lane id=":V0008_2_0" index="0" speed="5.47" length="9.74" shape="38.27,98.40 41.37,98.05 42.78,97.01 42.52,95.27 40.58,92.84"/>
    </edge>
    <edge id=":V0008_3" function="internal">
        <lane id=":V0008_3_0" index="0" speed="7.04" length="10.76" shape="38.27,98.40 42.70,98.27 45.87,97.86 47.77,97.20 48.40,96.26"/>
    </edge>
    <edge id=":V0009_0" function="internal">
        <lane id=":V0009_0_0" index="0" speed="4.95" length="7.66" shape="104.18,6.44 103.05,5.80 102.24,6.47 101.76,8.45 101.60,11.73"/>
    </edge>
    <edge id=":V0009_1" function="internal">
        <lane id=":V0009_1_0" index="0" speed="6.02" length="12.12" shape="104.18,6.44 101.15,2.92 100.11,0.41 101.06,-1.10 104.00,-1.60"/>
    </edge>
    <edge id=":V0011_0" function="internal">
        <lane id=":V0011_0_0" index="0" speed="5.19" length="9.91" shape="98.73,7.81 102.92,9.01 105.24,9.21 105.71,8.40 104.32,6.58"/>
    </edge>
    <edge id=":V0011_1" function="internal">
        <lane id=":V0011_1_0" index="0" speed="14.67" length="32.41" shape="97.72,10.85 110.69,15.01 120.22,17.73 126.31,18.98 128.96,18.78"/>
    </edge>
    <edge id=":V0011_2" function="internal">
        <lane id=":V0011_2_0" index="0" speed="11.45" length="34.82" shape="96.71,13.88 107.25,17.39 116.84,20.74 124.43,23.87 128.96,26.70"/>
    </edge>
    <edge id=":V0011_3" function="internal">
        <lane id=":V0011_3_0" index="0" speed="10.86" length="27.00" shape="119.91,27.83 120.00,25.44 117.43,21.10 112.20,14.82 104.32,6.58"/>
    </edge>
    <edge id=":V0011_4" function="internal">
        <lane id=":V0011_4_0" index="0" speed="19.50" length="12.80" shape="119.91,27.83 128.96,18.78"/>
    </edge>
    <edge id=":V0011_5" function="internal">
        <lane id=":V0011_5_0" index="0" speed="6.92" length="10.35" shape="119.91,27.83 122.38,25.85 124.72,25.00 126.91,25.28 128.96,26.70"/>
    </edge>
    <edge id=":V0012_0" function="internal">
        <lane id=":V0012_0_0" index="0" speed="5.47" length="9.74" shape="101.60,38.27 101.95,41.37 102.99,42.78 104.73,42.52 107.16,40.58"/>
    </edge>
    <edge id=":V0012_1" function="internal">
        <lane id=":V0012_1_0" index="0" speed="7.91" length="13.85" shape="101.60,38.27 102.03,42.70 103.33,45.87 105.50,47.77 108.53,48.40"/>
    </edge>
    <edge id=":V0012_2" function="internal">
        <lane id=":V0012_2_0" index="0" speed="13.90" length="17.97" shape="101.60,38.27 101.95,43.46 102.99,47.96 104.73,51.77 107.16,54.90"/>
    </edge>
    <edge id=":V0012_3" function="internal">
        <lane id=":V0012_3_0" index="0" speed="20.00" length="18.93" shape="101.60,38.27 101.60,57.20"/>
    </edge>
    <edge id=":V0012_4" function="internal">
        <lane id=":V0012_4_0" index="0" speed="12.23" length="13.83" shape="96.00,48.40 97.95,47.91 100.46,46.44 103.53,44.00 107.16,40.58"/>
    </edge>
    <edge id=":V0012_5" function="internal">
        <lane id=":V0012_5_0" index="0" speed="11.50" length="12.53" shape="96.00,48.40 108.53,48.40"/>
    </edge>
    <edge id=":V0012_6" function="internal">
        <lane id=":V0012_6_0" index="0" speed="11.96" length="13.19" shape="96.00,48.40 98.45,48.81 101.12,50.02 104.03,52.05 107.16,54.90"/>
    </edge>
    <edge id=":V0012_7" function="internal">
        <lane id=":V0012_7_0" index="0" speed="7.33" length="11.73" shape="96.00,48.40 98.45,48.95 100.20,50.60 101.25,53.35 101.60,57.20"/>
    </edge>
    <edge id=":V0013_0" function="internal">
        <lane id=":V0013_0_0" index="0" speed="5.47" length="9.74" shape="148.40,61.73 148.05,58.63 147.01,57.22 145.27,57.48 142.84,59.42"/>
    </edge>
    <edge id=":V0013_1" function="internal">
        <lane id=":V0013_1_0" index="0" speed="7.46" length="9.19" shape="148.40,61.73 148.21,58.51 147.66,56.08 146.73,54.42 145.43,53.54"/>
    </edge>
    <edge id=":V0013_2" function="internal">
        <lane id=":V0013_2_0" index="0" speed="14.50" length="23.45" shape="148.40,61.73 148.40,38.27"/>
    </edge>
    <edge id=":V0013_3" function="internal">
        <lane id=":V0013_3_0" index="0" speed="5.47" length="9.74" shape="142.84,40.58 145.27,42.52 147.01,42.78 148.05,41.37 148.40,38.27"/>
    </edge>
    <edge id=":V0013_4" function="internal">
        <lane id=":V0013_4_0" index="0" speed="9.73" length="21.49" shape="142.84,40.58 146.37,45.29 147.55,50.00 146.37,54.71 142.84,59.42"/>
    </edge>
    <edge id=":V0013_5" function="internal">
        <lane id=":V0013_5_0" index="0" speed="5.54" length="11.56" shape="142.84,40.58 144.80,43.27 146.51,46.77 147.17,49.61 145.95,50.34"/>
    </edge>
    <edge id=":V0013_6" function="internal">
        <lane id=":V0013_6_0" index="0" speed="8.00" length="27.72" shape="146.26,48.40 136.29,48.92 132.74,50.48 135.61,53.09 144.91,56.74"/>
    </edge>
    <edge id=":V0013_7" function="internal">
        <lane id=":V0013_7_0" index="0" speed="7.04" length="10.76" shape="146.26,48.40 147.20,47.77 147.86,45.87 148.27,42.70 148.40,38.27"/>
    </edge>
    <edge id=":V0013_8" function="internal">
        <lane id=":V0013_8_0" index="0" speed="6.20" length="12.98" shape="146.26,48.40 147.71,49.74 147.00,52.89 145.06,56.55 142.84,59.42"/>
    </edge>
    <edge id=":V0014_0" function="internal">
        <lane id=":V0014_0_0" index="0" speed="5.47" length="9.74" shape="101.60,88.27 101.95,91.37 102.99,92.78 104.73,92.52 107.16,90.58"/>
    </edge>
    <edge id=":V0014_1" function="internal">
        <lane id=":V0014_1_0" index="0" speed="7.65" length="12.89" shape="101.60,88.27 101.95,92.70 103.00,95.87 104.75,97.77 107.20,98.40"/>
    </edge>
    <edge id=":V0015_0" function="internal">
        <lane id=":V0015_0_0" index="0" speed="5.47" length="9.74" shape="142.84,90.58 145.27,92.52 147.01,92.78 148.05,91.37 148.40,88.27"/>
    </edge>
    <edge id=":V0015_1" function="internal">
        <lane id=":V0015_1_0" index="0" speed="7.65" length="12.89" shape="142.80,98.40 145.25,97.77 147.00,95.87 148.05,92.70 148.40,88.27"/>
    </edge>
    <edge id=":V0016_0" function="internal">
        <lane id=":V0016_0_0" index="0" speed="6.51" length="9.03" shape="131.22,71.04 129.74,73.02 129.24,75.00 129.74,76.98 131.22,78.96"/>
    </edge>
    <edge id=":V0016_1" function="internal">
        <lane id=":V0016_1_0" index="0" speed="17.50" length="14.40" shape="121.04,68.78 131.22,78.96"/>
    </edge>
    <edge id=":V0016_2" function="internal">
        <lane id=":V0016_2_0" index="0" speed="7.33" length="11.73" shape="121.04,76.70 123.16,75.35 125.57,75.28 128.25,76.48 131.22,78.96"/>
    </edge>

    <edge id="72d7aed8-213d-4366-9268-0e0d2426a302_1" from="V0002" to="V0007" priority="-1">
        <lane id="72d7aed8-213d-4366-9268-0e0d2426a302_1_0" index="0" speed="13.90" length="71.40" shape="43.63,30.63 11.56,94.76"/>
        <lane id="72d7aed8-213d-4366-9268-0e0d2426a302_1_1" index="1" speed="13.90" length="71.40" shape="40.87,29.00 8.93,92.87"/>
        <lane id="72d7aed8-213d-4366-9268-0e0d2426a302_1_2" index="2" speed="13.90" length="71.40" shape="38.10,27.37 6.30,90.97"/>
    </edge>
    <edge id="E0001" from="V0001" to="V0002" priority="-1">
        <lane id="E0001_0" index="0" speed="16.00" length="14.42" shape="27.05,-1.60 41.47,-1.60"/>
    </edge>
    <edge id="E0003" from="V0003" to="V0002" priority="-1">
        <lane id="E0003_0" index="0" speed="23.00" length="0.20" shape="27.88,19.86 28.02,19.72"/>
    </edge>
    <edge id="E0005" from="V0001" to="V0003" priority="-1">
        <lane id="E0005_0" index="0" speed="5.00" length="0.20" shape="22.28,20.02 22.42,20.16"/>
    </edge>
    <edge id="E0007" from="V0004" to="V0003" priority="-1">
        <lane id="E0007_0" index="0" speed="6.00" length="19.63" shape="7.16,40.58 21.04,26.70"/>
    </edge>
    <edge id="E0009" from="V0004" to="V0005" priority="-1">
        <lane id="E0009_0" index="0" speed="14.00" length="34.27" shape="7.20,48.40 41.47,48.40"/>
    </edge>
    <edge id="E0011" from="V0003" to="V0005" priority="-1">
        <lane id="E0011_0" index="0" speed="22.00" length="5.32" shape="39.08,36.82 42.84,40.58"/>
    </edge>
    <edge id="E0015" from="V0007" to="V0006" priority="-1">
        <lane id="E0015_0" index="0" speed="26.00" length="17.26" shape="6.57,91.16 18.78,78.96"/>
    </edge>
    <edge id="E0017" from="V0008" to="V0005" priority="-1">
        <lane id="E0017_0" index="0" speed="20.00" length="39.06" shape="48.40,96.26 48.40,57.20"/>
    </edge>
    <edge id="E0019" from="V0008" to="V0006" priority="-1">
        <lane id="E0019_0" index="0" speed="19.00" length="19.63" shape="40.58,92.84 26.70,78.96"/>
    </edge>
    <edge id="E0021" from="V0006" to="V0005" priority="-1">
        <lane id="E0021_0" index="0" speed="13.00" length="22.83" shape="26.70,71.04 42.84,54.90"/>
    </edge>
    <edge id="E0023" from="V0004" to="V0007" priority="-1">
        <lane id="E0023_0" index="0" speed="23.00" length="35.60" shape="1.60,54.00 1.60,89.60"/>
    </edge>
    <edge id="E0025" from="V0007" to="V0008" priority="-1">
        <lane id="E0025_0" index="0" speed="21.00" length="31.07" shape="7.20,98.40 38.27,98.40"/>
    </edge>
    <edge id="E0027" from="V0001" to="V0004" priority="-1">
        <lane id="E0027_0" index="0" speed="7.00" length="31.07" shape="1.60,7.20 1.60,38.27"/>
    </edge>
    <edge id="E0029" from="V0005" to="V0002" priority="-1">
        <lane id="E0029_0" index="0" speed="12.00" length="6.41" shape="48.40,38.27 48.40,31.87"/>
    </edge>
    <edge id="E0031" from="V0005" to="V0012" priority="-1">
        <lane id="E0031_0" index="0" speed="10.00" length="42.00" shape="54.00,48.40 96.00,48.40"/>
    </edge>
    <edge id="E0033" from="V0009" to="V0012" priority="-1">
        <lane id="E0033_0" index="0" speed="16.00" length="26.55" shape="101.60,11.73 101.60,38.27"/>
    </edge>
    <edge id="E0035" from="V0012" to="V0011" priority="-1">
        <lane id="E0035_0" index="0" speed="19.00" length="18.03" shape="107.16,40.58 119.91,27.83"/>
    </edge>
    <edge id="E0037" from="V0012" to="V0013" priority="-1">
        <lane id="E0037_0" index="0" speed="13.00" length="37.73" shape="108.53,48.40 146.26,48.40"/>
    </edge>
    <edge id="E0039" from="V0013" to="V0010" priority="-1">
        <lane id="E0039_0" index="0" speed="22.00" length="33.57" shape="148.40,38.27 148.40,4.70"/>
    </edge>
    <edge id="E0041" from="V0011" to="V0013" priority="-1">
        <lane id="E0041_0" index="0" speed="9.00" length="19.63" shape="128.96,26.70 142.84,40.58"/>
    </edge>
    <edge id="E0043" from="V0009" to="V0010" priority="-1">
        <lane id="E0043_0" index="0" speed="8.00" length="39.97" shape="104.00,-1.60 143.97,-1.60"/>
    </edge>
    <edge id="E0045" from="V0011" to="V0010" priority="-1">
        <lane id="E0045_0" index="0" speed="20.00" length="22.13" shape="128.96,18.78 144.61,3.13"/>
    </edge>
    <edge id="E0047" from="V0011" to="V0009" priority="-1">
        <lane id="E0047_0" index="0" speed="23.00" length="0.20" shape="104.32,6.58 104.18,6.44"/>
    </edge>
    <edge id="E0049" from="V0012" to="V0014" priority="-1">
        <lane id="E0049_0" index="0" speed="24.00" length="31.07" shape="101.60,57.20 101.60,88.27"/>
    </edge>
    <edge id="E0051" from="V0014" to="V0016" priority="-1">
        <lane id="E0051_0" index="0" speed="17.00" length="19.63" shape="107.16,90.58 121.04,76.70"/>
    </edge>
    <edge id="E0053" from="V0014" to="V0015" priority="-1">
        <lane id="E0053_0" index="0" speed="24.00" length="35.60" shape="107.20,98.40 142.80,98.40"/>
    </edge>
    <edge id="E0055" from="V0013" to="V0016" priority="-1">
        <lane id="E0055_0" index="0" speed="13.00" length="16.43" shape="142.84,59.42 131.22,71.04"/>
    </edge>
    <edge id="E0057" from="V0012" to="V0016" priority="-1">
        <lane id="E0057_0" index="0" speed="22.00" length="19.63" shape="107.16,54.90 121.04,68.78"/>
    </edge>
    <edge id="E0059" from="V0015" to="V0013" priority="-1">
        <lane id="E0059_0" index="0" speed="7.00" length="26.55" shape="148.40,88.27 148.40,61.73"/>
    </edge>
    <edge id="E0061" from="V0016" to="V0015" priority="-1">
        <lane id="E0061_0" index="0" speed="13.00" length="16.43" shape="131.22,78.96 142.84,90.58"/>
    </edge>
    <edge id="abdc9732-463c-4f6a-a6a9-a2911b149b28_1" from="V0002" to="V0011" priority="-1">
        <lane id="abdc9732-463c-4f6a-a6a9-a2911b149b28_1_0" index="0" speed="13.90" length="44.70" shape="56.32,-6.32 98.73,7.81"/>
        <lane id="abdc9732-463c-4f6a-a6a9-a2911b149b28_1_1" index="1" speed="13.90" length="44.70" shape="55.31,-3.29 97.72,10.85"/>
        <lane id="abdc9732-463c-4f6a-a6a9-a2911b149b28_1_2" index="2" speed="13.90" length="44.70" shape="54.30,-0.25 96.71,13.88"/>
    </edge>
    <edge id="c763a9ce-0a9d-4074-8764-403503c794f0_2" from="V0003" to="V0008" priority="-1">
        <lane id="c763a9ce-0a9d-4074-8764-403503c794f0_2_0" index="0" speed="13.90" length="58.78" shape="34.87,39.42 53.54,95.43"/>
        <lane id="c763a9ce-0a9d-4074-8764-403503c794f0_2_1" index="1" speed="13.90" length="58.78" shape="31.83,40.43 50.34,95.95"/>
    </edge>
    <edge id="efc7b7f8-ad34-488d-a0d0-4137f2519b9c_1" from="V0013" to="V0001" priority="-1">
        <lane id="efc7b7f8-ad34-488d-a0d0-4137f2519b9c_1_0" index="0" speed="13.90" length="125.81" shape="144.91,56.74 25.87,17.06"/>
        <lane id="efc7b7f8-ad34-488d-a0d0-4137f2519b9c_1_1" index="1" speed="13.90" length="125.81" shape="145.43,53.54 26.08,13.75"/>
        <lane id="efc7b7f8-ad34-488d-a0d0-4137f2519b9c_1_2" index="2" speed="13.90" length="125.81" shape="145.95,50.34 26.29,10.45"/>
    </edge>

    <junction id="V0001" type="priority" x="0.00" y="0.00" incLanes="efc7b7f8-ad34-488d-a0d0-4137f2519b9c_1_0 efc7b7f8-ad34-488d-a0d0-4137f2519b9c_1_1 efc7b7f8-ad34-488d-a0d0-4137f2519b9c_1_2" intLanes=":V0001_0_0 :V0001_1_0 :V0001_2_0" shape="0.00,7.20 3.20,7.20 6.06,7.54 9.23,9.98 13.21,13.51 17.74,17.80 22.53,22.53 24.80,20.27 25.76,18.71 27.16,-3.20 18.86,-2.91 12.07,-2.04 6.79,-0.60 3.02,1.42 0.75,4.02">
        <request index="0" response="000" foes="000" cont="0"/>
        <request index="1" response="000" foes="000" cont="0"/>
        <request index="2" response="000" foes="000" cont="0"/>
    </junction>
    <junction id="V0002" type="priority" x="50.00" y="0.00" incLanes="E0029_0 E0001_0 E0003_0" intLanes=":V0002_0_0 :V0002_1_0 :V0002_2_0 :V0002_2_1 :V0002_2_2 :V0002_5_0 :V0002_5_1 :V0002_7_0 :V0002_8_0" shape="46.80,31.87 50.00,31.87 50.06,23.58 50.28,16.08 50.71,9.75 51.41,4.92 52.42,1.98 53.79,1.26 56.83,-7.84 53.61,-8.38 51.25,-7.77 49.31,-6.47 47.33,-4.97 44.87,-3.72 41.47,-3.20 41.47,0.00 41.05,2.94 38.51,6.21 34.86,10.32 30.42,14.99 25.52,19.96 45.01,31.44">
        <request index="0" response="000000000" foes="000000000" cont="0"/>
        <request index="1" response="000011100" foes="000011100" cont="0"/>
        <request index="2" response="010000000" foes="010000010" cont="0"/>
        <request index="3" response="010000000" foes="010000010" cont="0"/>
        <request index="4" response="010000000" foes="010000010" cont="0"/>
        <request index="5" response="010000000" foes="110000000" cont="0"/>
        <request index="6" response="010000000" foes="110000000" cont="0"/>
        <request index="7" response="000000000" foes="001111100" cont="0"/>
        <request index="8" response="001100000" foes="001100000" cont="0"/>
    </junction>
    <junction id="V0003" type="priority" x="25.00" y="25.00" incLanes="E0005_0 E0007_0" intLanes=":V0003_0_0 :V0003_1_0 :V0003_2_0 :V0003_3_0 :V0003_4_0 :V0003_5_0" shape="30.31,40.94 36.38,38.91 37.95,37.95 40.21,35.68 36.33,31.65 33.33,28.18 31.21,25.27 29.96,22.92 29.59,21.13 30.09,19.91 27.83,17.65 25.94,18.90 25.00,19.06 24.06,18.90 23.11,18.43 22.17,17.65 19.91,19.91 21.17,21.79 21.32,22.74 21.17,23.68 20.69,24.62 19.91,25.57 22.17,27.83 24.33,28.03 25.62,29.69 27.05,32.40 28.61,36.15">
        <request index="0" response="001000" foes="001000" cont="0"/>
        <request index="1" response="011000" foes="011000" cont="0"/>
        <request index="2" response="111000" foes="111000" cont="0"/>
        <request index="3" response="000000" foes="000111" cont="0"/>
        <request index="4" response="000000" foes="000110" cont="0"/>
        <request index="5" response="000000" foes="000100" cont="0"/>
    </junction>
    <junction id="V0004" type="priority" x="0.00" y="50.00" incLanes="E0027_0" intLanes=":V0004_0_0 :V0004_1_0 :V0004_2_0" shape="0.00,54.00 3.20,54.00 3.64,51.78 4.20,51.00 4.98,50.44 5.98,50.11 7.20,50.00 7.20,46.80 5.54,46.23 5.47,45.53 5.91,44.54 6.85,43.26 8.29,41.71 6.03,39.45 4.46,40.57 3.91,40.57 3.51,40.18 3.28,39.42 3.20,38.27 0.00,38.27">
        <request index="0" response="000" foes="000" cont="0"/>
        <request index="1" response="000" foes="000" cont="0"/>
        <request index="2" response="000" foes="000" cont="0"/>
    </junction>
    <junction id="V0005" type="priority" x="50.00" y="50.00" incLanes="E0017_0 E0011_0 E0009_0 E0021_0" intLanes=":V0005_0_0 :V0005_1_0 :V0005_2_0 :V0005_3_0 :V0005_4_0 :V0005_5_0 :V0005_6_0 :V0005_7_0" shape="46.80,57.20 50.00,57.20 50.11,55.00 50.44,53.20 51.00,51.80 51.78,50.80 52.78,50.20 54.00,50.00 54.00,46.80 51.78,45.85 51.00,44.67 50.44,43.01 50.11,40.88 50.00,38.27 46.80,38.27 46.49,40.18 46.09,40.57 45.54,40.57 44.84,40.20 43.97,39.45 41.71,41.71 43.12,43.26 43.95,44.54 44.20,45.53 43.87,46.23 42.96,46.66 41.47,46.80 41.47,50.00 43.28,50.42 43.53,50.94 43.36,51.67 42.75,52.62 41.71,53.77 43.97,56.03 45.54,54.90 46.09,54.91 46.49,55.29 46.72,56.06">
        <request index="0" response="11111100" foes="11111100" cont="0"/>
        <request index="1" response="10101000" foes="10101000" cont="0"/>
        <request index="2" response="00000000" foes="01010001" cont="0"/>
        <request index="3" response="00000000" foes="11110011" cont="0"/>
        <request index="4" response="00001100" foes="01001101" cont="0"/>
        <request index="5" response="00001000" foes="11001011" cont="0"/>
        <request index="6" response="00111100" foes="00111101" cont="0"/>
        <request index="7" response="00101000" foes="00101011" cont="0"/>
    </junction>
    <junction id="V0006" type="priority" x="25.00" y="75.00" incLanes="E0019_0 E0015_0" intLanes=":V0006_0_0 :V0006_1_0" shape="25.57,80.09 27.83,77.83 26.57,75.94 26.41,75.00 26.57,74.06 27.04,73.11 27.83,72.17 25.57,69.91 17.65,77.83 19.91,80.09 21.79,78.83 22.74,78.68 23.68,78.83 24.62,79.31">
        <request index="0" response="10" foes="10" cont="0"/>
        <request index="1" response="00" foes="01" cont="0"/>
    </junction>
    <junction id="V0007" type="priority" x="0.00" y="100.00" incLanes="72d7aed8-213d-4366-9268-0e0d2426a302_1_0 72d7aed8-213d-4366-9268-0e0d2426a302_1_1 72d7aed8-213d-4366-9268-0e0d2426a302_1_2 E0023_0" intLanes=":V0007_0_0 :V0007_1_0 :V0007_2_0 :V0007_3_0" shape="7.20,100.00 7.20,96.80 5.50,96.28 5.37,95.63 5.73,94.72 6.57,93.54 7.89,92.11 4.99,90.02 3.20,89.60 0.00,89.60 0.20,92.78 0.80,95.38 1.80,97.40 3.20,98.84 5.00,99.71">
        <request index="0" response="0100" foes="0100" cont="0"/>
        <request index="1" response="1100" foes="1100" cont="0"/>
        <request index="2" response="0000" foes="0011" cont="0"/>
        <request index="3" response="0000" foes="0010" cont="0"/>
    </junction>
    <junction id="V0008" type="priority" x="50.00" y="100.00" incLanes="c763a9ce-0a9d-4074-8764-403503c794f0_2_0 c763a9ce-0a9d-4074-8764-403503c794f0_2_1 E0025_0" intLanes=":V0008_0_0 :V0008_1_0 :V0008_2_0 :V0008_3_0" shape="50.00,96.00 48.74,96.21 48.52,97.39 47.61,96.98 46.17,95.89 44.21,94.14 41.71,91.71 39.45,93.97 40.57,95.54 40.57,96.09 40.18,96.49 39.42,96.72 38.27,96.80 38.27,100.00 41.86,99.89 44.79,99.56 47.07,99.00 48.70,98.22 49.67,97.22">
        <request index="0" response="1000" foes="1000" cont="0"/>
        <request index="1" response="0100" foes="0100" cont="0"/>
        <request index="2" response="0000" foes="0010" cont="0"/>
        <request index="3" response="0000" foes="0001" cont="0"/>
    </junction>
    <junction id="V0009" type="priority" x="100.00" y="0.00" incLanes="E0047_0" intLanes=":V0009_0_0 :V0009_1_0" shape="100.00,11.73 103.20,11.73 103.51,9.82 103.91,9.43 104.46,9.43 105.16,9.80 106.03,10.55 108.29,8.29 105.87,5.76 104.13,3.68 103.07,2.07 102.70,0.92 103.01,0.23 104.00,0.00 104.00,-3.20 101.78,-1.54 101.00,0.53 100.44,3.43 100.11,7.16">
        <request index="0" response="00" foes="00" cont="0"/>
        <request index="1" response="00" foes="00" cont="0"/>
    </junction>
    <junction id="V0010" type="dead_end" x="150.00" y="0.00" incLanes="E0039_0 E0043_0 E0045_0" intLanes="" shape="146.80,4.70 150.00,4.70 149.83,2.29 149.33,0.31 148.49,-1.22 147.32,-2.32 145.82,-2.98 143.97,-3.20 143.97,0.00 144.59,0.22 144.60,0.50 144.42,0.89 144.05,1.39 143.48,2.00 145.74,4.26 146.33,3.84 146.53,3.84 146.68,3.98 146.77,4.27"/>
    <junction id="V0011" type="priority" x="125.00" y="25.00" incLanes="abdc9732-463c-4f6a-a6a9-a2911b149b28_1_0 abdc9732-463c-4f6a-a6a9-a2911b149b28_1_1 abdc9732-463c-4f6a-a6a9-a2911b149b28_1_2 E0035_0" intLanes=":V0011_0_0 :V0011_1_0 :V0011_2_0 :V0011_3_0 :V0011_4_0 :V0011_5_0" shape="127.83,27.83 130.09,25.57 128.83,23.68 128.68,22.74 128.83,21.79 129.31,20.85 130.09,19.91 127.83,17.65 125.71,18.64 122.75,18.22 118.94,16.40 114.29,13.16 108.80,8.52 102.47,2.47 100.20,4.73 99.24,6.29 96.20,15.40 102.66,17.61 108.49,19.78 113.36,21.83 116.93,23.71 118.85,25.35 118.78,26.70 121.04,28.96 123.55,27.07 124.72,26.70 125.82,26.70 126.85,27.07">
        <request index="0" response="001000" foes="001000" cont="0"/>
        <request index="1" response="011000" foes="011000" cont="0"/>
        <request index="2" response="111000" foes="111000" cont="0"/>
        <request index="3" response="000000" foes="000111" cont="0"/>
        <request index="4" response="000000" foes="000110" cont="0"/>
        <request index="5" response="000000" foes="000100" cont="0"/>
    </junction>