<?xml version="1.0"?>
<edges>
  <edge id="E0001" from="V0001" to="V0002" numLanes="1" speed="16.0"/>
  <edge id="E0003" from="V0003" to="V0002" numLanes="1" speed="23.0"/>
  <edge id="E0005" from="V0001" to="V0003" numLanes="1" speed="5.0"/>
  <edge id="E0007" from="V0004" to="V0003" numLanes="1" speed="6.0"/>
  <edge id="E0009" from="V0004" to="V0005" numLanes="1" speed="14.0"/>
  <edge id="E0011" from="V0003" to="V0005" numLanes="1" speed="22.0"/>
  <edge id="E0013" from="V0004" to="V0006" numLanes="1" speed="24.0"/>
  <edge id="E0015" from="V0007" to="V0006" numLanes="1" speed="26.0"/>
  <edge id="E0017" from="V0008" to="V0005" numLanes="1" speed="20.0"/>
  <edge id="E0019" from="V0008" to="V0006" numLanes="1" speed="19.0"/>
  <edge id="E0021" from="V0006" to="V0005" numLanes="1" speed="13.0"/>
  <edge id="E0023" from="V0004" to="V0007" numLanes="1" speed="23.0"/>
  <edge id="E0025" from="V0007" to="V0008" numLanes="1" speed="21.0"/>
  <edge id="E0027" from="V0001" to="V0004" numLanes="1" speed="7.0"/>
  <edge id="E0029" from="V0005" to="V0002" numLanes="1" speed="12.0"/>
  <edge id="E0031" from="V0005" to="V0012" numLanes="1" speed="10.0"/>
  <edge id="E0033" from="V0009" to="V0012" numLanes="1" speed="16.0"/>
  <edge id="E0035" from="V0012" to="V0011" numLanes="1" speed="19.0"/>
  <edge id="E0037" from="V0012" to="V0013" numLanes="1" speed="13.0"/>
  <edge id="E0039" from="V0013" to="V0010" numLanes="1" speed="22.0"/>
  <edge id="E0041" from="V0011" to="V0013" numLanes="1" speed="9.0"/>
  <edge id="E0043" from="V0009" to="V0010" numLanes="1" speed="8.0"/>
  <edge id="E0045" from="V0011" to="V0010" numLanes="1" speed="20.0"/>
  <edge id="E0047" from="V0011" to="V0009" numLanes="1" speed="23.0"/>
  <edge id="E0049" from="V0012" to="V0014" numLanes="1" speed="24.0"/>
  <edge id="E0051" from="V0014" to="V0016" numLanes="1" speed="17.0"/>
  <edge id="E0053" from="V0014" to="V0015" numLanes="1" speed="24.0"/>
  <edge id="E0055" from="V0013" to="V0016" numLanes="1" speed="13.0"/>
  <edge id="E0057" from="V0012" to="V0016" numLanes="1" speed="22.0"/>
  <edge id="E0059" from="V0015" to="V0013" numLanes="1" speed="7.0"/>
  <edge id="E0061" from="V0016" to="V0015" numLanes="1" speed="13.0"/>
</edges>