<configuration><input><net-file value="superSimple.net.xml" /><route-files value="superSimple.rou.xml" /></input><time><begin value="0" /></time></configuration>