<?xml version="1.0"?>
<nodes>
  <node id="V0001" x="0.0" y="0.0" type="priority"/>
  <node id="V0002" x="50.0" y="0.0" type="priority"/>
  <node id="V0003" x="25.0" y="25.0" type="priority"/>
  <node id="V0004" x="0.0" y="50.0" type="priority"/>
  <node id="V0005" x="50.0" y="50.0" type="priority"/>
  <node id="V0006" x="25.0" y="75.0" type="priority"/>
  <node id="V0007" x="0.0" y="100.0" type="priority"/>
  <node id="V0008" x="50.0" y="100.0" type="priority"/>
  <node id="V0009" x="100.0" y="0.0" type="priority"/>
  <node id="V0010" x="150.0" y="0.0" type="priority"/>
  <node id="V0011" x="125.0" y="25.0" type="priority"/>
  <node id="V0012" x="100.0" y="50.0" type="priority"/>
  <node id="V0013" x="150.0" y="50.0" type="priority"/>
  <node id="V0014" x="100.0" y="100.0" type="priority"/>
  <node id="V0015" x="150.0" y="100.0" type="priority"/>
  <node id="V0016" x="125.0" y="75.0" type="priority"/>
</nodes>