<nodes><node id="V0001" x="687.4866666666666" y="410.68933333333337" type="priority" /><node id="V0002" x="228.06666666666666" y="83.01066666666667" type="priority" /><node id="V0003" x="852.76" y="853.7666666666667" type="priority" /><node id="V0004" x="1010.2866666666666" y="205.80066666666667" type="priority" /><node id="V0005" x="371.88666666666666" y="1007.06" type="priority" /><node id="V0006" x="1060.7066666666667" y="494.286" type="priority" /><node id="V0007" x="180.214" y="487.05933333333337" type="priority" /><node id="V0008" x="586.9646666666666" y="1004.6866666666666" type="priority" /><node id="V0009" x="13.346733333333333" y="276.60333333333335" type="priority" /><node id="V0010" x="599.1066666666667" y="818.48" type="priority" /><node id="V0011" x="455.46933333333334" y="245.204" type="priority" /><node id="V0012" x="738.3666666666667" y="547.0886666666667" type="priority" /><node id="V0013" x="558.0586666666666" y="490.16066666666666" type="priority" /><node id="V0014" x="508.7633333333333" y="905.1666666666666" type="priority" /><node id="V0015" x="789.6733333333334" y="684.64" type="priority" /><node id="V0016" x="596.7026666666667" y="345.93733333333336" type="priority" /><node id="V0017" x="621.1" y="821.5400000000001" type="priority" /><node id="V0018" x="822.88" y="441.01533333333333" type="priority" /><node id="V0019" x="206.766" y="262.8666666666667" type="priority" /><node id="V0020" x="717.62" y="491.47" type="priority" /><node id="V0021" x="671.8533333333332" y="630.566" type="priority" /><node id="V0022" x="474.678" y="387.284" type="priority" /><node id="V0023" x="481.1093333333334" y="869.9733333333334" type="priority" /><node id="V0024" x="742.52" y="717.76" type="priority" /><node id="V0025" x="793.0066666666667" y="693.5733333333334" type="priority" /><node id="V0026" x="782.26" y="492.0006666666667" type="priority" /><node id="V0027" x="364.74533333333335" y="251.64733333333334" type="priority" /><node id="V0028" x="749.2933333333333" y="726.1133333333333" type="priority" /></nodes>