<?xml version="1.0" encoding="UTF-8"?>

<!-- generated on 2023-06-26 02:05:23 by Eclipse SUMO netconvert Version 1.16.0
<configuration xmlns:xsi="http://www.w3.org/2001/XMLSchema-instance" xsi:noNamespaceSchemaLocation="http://sumo.dlr.de/xsd/netconvertConfiguration.xsd">

    <input>
        <node-files value="data/simulationConfigurations/tests/13\13.nod.xml"/>
        <edge-files value="data/simulationConfigurations/tests/13\13.edg.xml"/>
    </input>

    <output>
        <output-file value="data/simulationConfigurations/tests/13\13.net.xml"/>
    </output>

</configuration>
-->

<net version="1.16" junctionCornerDetail="5" limitTurnSpeed="5.50" xmlns:xsi="http://www.w3.org/2001/XMLSchema-instance" xsi:noNamespaceSchemaLocation="http://sumo.dlr.de/xsd/net_file.xsd">

    <location netOffset="-13.35,-83.01" convBoundary="0.00,0.00,1047.36,924.05" origBoundary="13.35,83.01,1060.71,1007.06" projParameter="!"/>

    <edge id=":V0001_0" function="internal">
        <lane id=":V0001_0_0" index="0" speed="5.85" length="10.25" shape="690.91,333.07 688.12,332.90 686.55,333.88 686.18,336.03 687.03,339.34"/>
        <lane id=":V0001_0_1" index="1" speed="6.76" length="14.17" shape="690.91,333.07 686.54,332.65 683.93,333.74 683.10,336.35 684.03,340.46"/>
        <lane id=":V0001_0_2" index="2" speed="7.57" length="18.16" shape="690.91,333.07 684.95,332.41 681.32,333.61 680.01,336.66 681.03,341.58"/>
    </edge>
    <edge id=":V0001_3" function="internal">
        <lane id=":V0001_3_0" index="0" speed="18.50" length="25.97" shape="690.91,333.07 685.99,332.52 679.32,331.93 672.04,330.46 665.28,327.26"/>
        <lane id=":V0001_3_1" index="1" speed="18.50" length="25.97" shape="690.91,333.07 686.28,332.11 680.25,330.63 673.60,328.26 667.14,324.65"/>
    </edge>
    <edge id=":V0001_5" function="internal">
        <lane id=":V0001_5_0" index="0" speed="7.55" length="20.02" shape="690.91,333.07 684.06,331.32 678.30,329.18 675.27,326.77 676.66,324.18"/>
    </edge>
    <edge id=":V0002_0" function="internal">
        <lane id=":V0002_0_0" index="0" speed="5.48" length="9.70" shape="223.58,13.47 221.38,11.31 219.67,10.87 218.47,12.15 217.76,15.16"/>
    </edge>
    <edge id=":V0002_1" function="internal">
        <lane id=":V0002_1_0" index="0" speed="7.90" length="19.10" shape="228.69,11.93 223.05,8.71 218.81,8.11 215.99,10.14 214.58,14.78"/>
    </edge>
    <edge id=":V0002_2" function="internal">
        <lane id=":V0002_2_0" index="0" speed="8.64" length="17.20" shape="230.57,7.35 225.39,7.15 221.53,8.38 218.99,11.05 217.76,15.16"/>
        <lane id=":V0002_2_1" index="1" speed="9.81" length="22.50" shape="231.06,4.18 224.43,3.97 219.47,5.66 216.19,9.26 214.58,14.78"/>
    </edge>
    <edge id=":V0003_0" function="internal">
        <lane id=":V0003_0_0" index="0" speed="5.45" length="9.20" shape="838.56,745.58 839.85,748.02 841.30,748.85 842.91,748.06 844.68,745.67"/>
        <lane id=":V0003_0_1" index="1" speed="6.46" length="13.57" shape="838.56,745.58 840.57,749.57 842.72,751.19 845.01,750.42 847.45,747.27"/>
        <lane id=":V0003_0_2" index="2" speed="7.34" length="17.98" shape="838.56,745.58 841.28,751.13 844.14,753.53 847.12,752.78 850.22,748.87"/>
    </edge>
    <edge id=":V0003_3" function="internal">
        <lane id=":V0003_3_0" index="0" speed="11.45" length="41.54" shape="838.56,745.58 841.00,757.39 838.83,766.61 832.10,772.18 820.86,773.02"/>
        <lane id=":V0003_3_1" index="1" speed="10.38" length="33.88" shape="835.89,747.57 837.85,757.18 836.03,764.67 830.49,769.18 821.30,769.85"/>
    </edge>
    <edge id=":V0003_5" function="internal">
        <lane id=":V0003_5_0" index="0" speed="6.02" length="14.81" shape="833.21,749.56 833.45,754.12 832.17,756.65 829.38,757.15 825.08,755.61"/>
    </edge>
    <edge id=":V0004_0" function="internal">
        <lane id=":V0004_0_0" index="0" speed="5.82" length="10.91" shape="998.01,138.22 997.07,135.43 995.55,134.51 993.45,135.45 990.76,138.25"/>
    </edge>
    <edge id=":V0004_1" function="internal">
        <lane id=":V0004_1_0" index="0" speed="13.00" length="38.01" shape="998.01,138.22 995.04,132.35 988.52,128.47 978.46,126.58 964.85,126.67"/>
    </edge>
    <edge id=":V0004_2" function="internal">
        <lane id=":V0004_2_0" index="0" speed="13.50" length="39.84" shape="998.01,138.22 995.05,131.79 988.61,126.51 978.70,122.40 965.32,119.45"/>
    </edge>
    <edge id=":V0004_3" function="internal">
        <lane id=":V0004_3_0" index="0" speed="4.03" length="5.64" shape="965.22,128.47 963.30,129.21 962.70,129.69 963.43,129.90 965.49,129.84"/>
    </edge>
    <edge id=":V0004_4" function="internal">
        <lane id=":V0004_4_0" index="0" speed="5.97" length="13.62" shape="965.22,128.47 969.58,126.62 970.97,125.02 969.38,123.69 964.82,122.61"/>
    </edge>
    <edge id=":V0004_5" function="internal">
        <lane id=":V0004_5_0" index="0" speed="9.56" length="36.53" shape="965.22,128.47 976.61,126.27 986.94,127.08 992.79,131.02 990.76,138.25"/>
        <lane id=":V0004_5_1" index="1" speed="8.77" length="30.44" shape="965.85,131.63 975.59,129.20 984.62,128.60 989.91,130.63 988.37,136.11"/>
    </edge>
    <edge id=":V0004_7" function="internal">
        <lane id=":V0004_7_0" index="0" speed="7.58" length="22.98" shape="981.99,130.38 984.20,128.07 982.08,126.68 975.63,126.22 964.85,126.67"/>
    </edge>
    <edge id=":V0004_8" function="internal">
        <lane id=":V0004_8_0" index="0" speed="8.43" length="26.20" shape="981.99,130.38 984.89,127.20 983.08,124.31 976.55,121.73 965.32,119.45"/>
    </edge>
    <edge id=":V0004_9" function="internal">
        <lane id=":V0004_9_0" index="0" speed="5.61" length="12.52" shape="981.99,130.38 985.73,129.42 988.04,130.05 988.92,132.28 988.37,136.11"/>
    </edge>
    <edge id=":V0005_0" function="internal">
        <lane id=":V0005_0_0" index="0" speed="13.74" length="32.42" shape="378.91,928.62 368.26,927.98 360.02,925.80 354.18,922.06 350.75,916.79"/>
        <lane id=":V0005_0_1" index="1" speed="12.91" length="28.50" shape="378.88,925.43 369.26,924.91 361.87,923.11 356.70,920.04 353.75,915.69"/>
    </edge>
    <edge id=":V0005_2" function="internal">
        <lane id=":V0005_2_0" index="0" speed="12.33" length="42.81" shape="386.64,913.11 375.03,920.85 364.74,925.08 356.44,924.25 350.75,916.79"/>
        <lane id=":V0005_2_1" index="1" speed="11.42" length="36.55" shape="384.73,910.54 374.59,917.39 365.61,921.41 358.45,921.29 353.75,915.69"/>
    </edge>
    <edge id=":V0005_4" function="internal">
        <lane id=":V0005_4_0" index="0" speed="10.93" length="38.79" shape="379.89,904.95 371.47,914.55 363.18,921.28 355.96,922.81 350.75,916.79"/>
        <lane id=":V0005_4_1" index="1" speed="9.91" length="31.61" shape="377.39,902.96 370.28,911.23 363.42,917.32 357.64,919.41 353.75,915.69"/>
    </edge>
    <edge id=":V0005_6" function="internal">
        <lane id=":V0005_6_0" index="0" speed="15.27" length="115.53" shape="361.88,912.71 342.15,874.18 333.72,862.02 336.59,876.22 350.75,916.79"/>
        <lane id=":V0005_6_1" index="1" speed="10.46" length="53.02" shape="358.86,913.81 349.81,896.13 345.94,890.55 347.25,897.07 353.75,915.69"/>
    </edge>
    <edge id=":V0006_0" function="internal">
        <lane id=":V0006_0_0" index="0" speed="5.71" length="12.69" shape="1019.16,444.05 1021.14,440.04 1021.22,438.17 1019.37,438.46 1015.61,440.89"/>
        <lane id=":V0006_0_1" index="1" speed="7.16" length="21.07" shape="1019.16,444.05 1022.55,437.25 1022.77,434.02 1019.82,434.38 1013.71,438.32"/>
    </edge>
    <edge id=":V0006_2" function="internal">
        <lane id=":V0006_2_0" index="0" speed="6.17" length="14.96" shape="1019.16,444.05 1021.49,439.31 1021.55,437.04 1019.36,437.25 1014.90,439.94"/>
        <lane id=":V0006_2_1" index="1" speed="7.48" length="22.91" shape="1019.16,444.05 1022.80,436.68 1022.98,433.10 1019.72,433.33 1013.00,437.36"/>
    </edge>
    <edge id=":V0006_4" function="internal">
        <lane id=":V0006_4_0" index="0" speed="10.91" length="38.05" shape="1019.16,444.05 1024.86,431.76 1025.72,422.95 1021.74,417.63 1012.93,415.79"/>
        <lane id=":V0006_4_1" index="1" speed="11.89" length="45.49" shape="1021.93,445.66 1028.49,431.28 1029.18,420.97 1024.00,414.75 1012.95,412.59"/>
    </edge>
    <edge id=":V0006_6" function="internal">
        <lane id=":V0006_6_0" index="0" speed="12.79" length="46.72" shape="1021.93,445.66 1028.15,431.67 1028.80,420.83 1023.89,413.13 1013.41,408.59"/>
        <lane id=":V0006_6_1" index="1" speed="13.23" length="50.06" shape="1021.93,445.66 1028.82,430.38 1029.82,418.59 1024.91,410.29 1014.11,405.47"/>
    </edge>
    <edge id=":V0006_8" function="internal">
        <lane id=":V0006_8_0" index="0" speed="14.50" length="45.84" shape="1024.70,447.26 1031.14,436.07 1037.92,423.76 1043.13,412.95 1044.87,406.30"/>
    </edge>
    <edge id=":V0007_0" function="internal">
        <lane id=":V0007_0_0" index="0" speed="11.89" length="33.28" shape="168.91,423.48 167.02,414.58 168.50,407.26 173.35,401.53 181.57,397.38"/>
    </edge>
    <edge id=":V0007_1" function="internal">
        <lane id=":V0007_1_0" index="0" speed="5.62" length="12.69" shape="171.61,421.55 171.49,417.64 172.62,415.49 175.02,415.11 178.68,416.50"/>
    </edge>
    <edge id=":V0007_2" function="internal">
        <lane id=":V0007_2_0" index="0" speed="5.63" length="9.83" shape="184.76,409.00 181.56,409.32 179.92,410.37 179.83,412.14 181.29,414.63"/>
        <lane id=":V0007_2_1" index="1" speed="7.32" length="17.73" shape="183.88,405.79 178.42,406.42 175.73,408.41 175.82,411.77 178.68,416.50"/>
    </edge>
    <edge id=":V0007_4" function="internal">
        <lane id=":V0007_4_0" index="0" speed="5.65" length="12.74" shape="183.88,405.79 180.15,404.55 178.52,402.74 178.99,400.35 181.57,397.38"/>
    </edge>
    <edge id=":V0007_5" function="internal">
        <lane id=":V0007_5_0" index="0" speed="5.74" length="9.10" shape="176.24,392.96 176.28,395.67 177.19,397.31 178.95,397.88 181.57,397.38"/>
    </edge>
    <edge id=":V0007_6" function="internal">
        <lane id=":V0007_6_0" index="0" speed="9.50" length="24.52" shape="173.06,392.58 172.89,399.85 174.34,405.04 177.20,409.51 181.29,414.63"/>
        <lane id=":V0007_6_1" index="1" speed="9.50" length="26.86" shape="169.88,392.20 169.75,400.31 171.40,406.21 174.49,411.19 178.68,416.50"/>
    </edge>
    <edge id=":V0008_0" function="internal">
        <lane id=":V0008_0_0" index="0" speed="6.31" length="12.67" shape="577.39,918.71 579.42,922.07 579.47,924.48 577.56,925.95 573.67,926.48"/>
        <lane id=":V0008_0_1" index="1" speed="4.03" length="4.22" shape="574.88,920.69 575.55,921.81 575.57,922.61 574.93,923.10 573.64,923.28"/>
    </edge>
    <edge id=":V0009_0" function="internal">
        <lane id=":V0009_0_0" index="0" speed="5.83" length="9.13" shape="17.25,197.18 14.65,197.73 13.19,198.95 12.87,200.82 13.70,203.35"/>
        <lane id=":V0009_0_1" index="1" speed="6.73" length="12.60" shape="17.25,197.18 13.18,197.91 10.75,199.42 9.96,201.71 10.83,204.76"/>
        <lane id=":V0009_0_2" index="2" speed="8.20" length="19.38" shape="17.03,193.99 11.01,195.14 7.49,197.55 6.47,201.23 7.96,206.17"/>
    </edge>
    <edge id=":V0011_0" function="internal">
        <lane id=":V0011_0_0" index="0" speed="14.00" length="16.28" shape="450.60,170.20 447.26,168.00 443.51,166.01 439.58,164.62 435.73,164.25"/>
    </edge>
    <edge id=":V0011_1" function="internal">
        <lane id=":V0011_1_0" index="0" speed="17.00" length="16.92" shape="450.60,170.20 436.82,160.38"/>
    </edge>
    <edge id=":V0011_2" function="internal">
        <lane id=":V0011_2_0" index="0" speed="13.50" length="16.16" shape="451.69,166.33 446.51,166.19 442.57,165.37 439.20,164.51 435.73,164.25"/>
    </edge>
    <edge id=":V0011_3" function="internal">
        <lane id=":V0011_3_0" index="0" speed="14.15" length="15.26" shape="451.46,163.13 446.61,163.33 442.88,163.04 439.78,162.11 436.82,160.38"/>
    </edge>
    <edge id=":V0012_0" function="internal">
        <lane id=":V0012_0_0" index="0" speed="9.21" length="11.24" shape="735.01,464.37 732.65,467.62 731.11,470.36 730.42,472.60 730.55,474.33"/>
    </edge>
    <edge id=":V0012_1" function="internal">
        <lane id=":V0012_1_0" index="0" speed="5.50" length="10.18" shape="730.01,460.39 723.66,468.35"/>
    </edge>
    <edge id=":V0012_2" function="internal">
        <lane id=":V0012_2_0" index="0" speed="22.50" length="15.73" shape="725.06,459.60 730.55,474.33"/>
    </edge>
    <edge id=":V0012_3" function="internal">
        <lane id=":V0012_3_0" index="0" speed="8.42" length="9.29" shape="725.06,459.60 725.64,461.93 725.60,464.17 724.94,466.31 723.66,468.35"/>
    </edge>
    <edge id=":V0013_0" function="internal">
        <lane id=":V0013_0_0" index="0" speed="10.10" length="11.00" shape="547.39,418.08 544.98,415.39 542.71,413.46 540.60,412.30 538.64,411.90"/>
        <lane id=":V0013_0_1" index="1" speed="11.27" length="13.81" shape="549.88,416.07 546.95,412.86 544.11,410.56 541.35,409.18 538.67,408.70"/>
    </edge>
    <edge id=":V0013_2" function="internal">
        <lane id=":V0013_2_0" index="0" speed="6.50" length="14.70" shape="549.88,416.07 540.62,404.64"/>
    </edge>
    <edge id=":V0013_3" function="internal">
        <lane id=":V0013_3_0" index="0" speed="21.00" length="13.19" shape="551.83,412.01 538.64,411.90"/>
        <lane id=":V0013_3_1" index="1" speed="21.00" length="13.19" shape="551.86,408.81 538.67,408.70"/>
    </edge>
    <edge id=":V0013_5" function="internal">
        <lane id=":V0013_5_0" index="0" speed="10.68" length="12.36" shape="551.86,408.81 548.19,408.52 545.09,407.73 542.57,406.44 540.62,404.64"/>
    </edge>
    <edge id=":V0014_0" function="internal">
        <lane id=":V0014_0_0" index="0" speed="8.53" length="16.60" shape="507.28,815.32 504.67,818.19 503.85,821.57 504.82,825.47 507.60,829.89"/>
    </edge>
    <edge id=":V0014_1" function="internal">
        <lane id=":V0014_1_0" index="0" speed="22.50" length="18.17" shape="507.28,815.32 505.04,818.23 503.45,822.16 501.20,826.58 496.99,830.96"/>
        <lane id=":V0014_1_1" index="1" speed="22.50" length="18.17" shape="507.28,815.32 504.69,817.87 502.37,820.97 499.45,824.52 495.07,828.39"/>
        <lane id=":V0014_1_2" index="2" speed="22.50" length="18.17" shape="507.28,815.32 493.16,825.83"/>
    </edge>
    <edge id=":V0014_4" function="internal">
        <lane id=":V0014_4_0" index="0" speed="23.00" length="17.98" shape="499.24,814.07 502.10,818.52 503.42,821.98 504.73,825.44 507.60,829.89"/>
        <lane id=":V0014_4_1" index="1" speed="23.00" length="17.98" shape="496.72,816.05 499.58,820.50 500.90,823.95 502.22,827.41 505.08,831.86"/>
    </edge>
    <edge id=":V0014_6" function="internal">
        <lane id=":V0014_6_0" index="0" speed="7.27" length="11.77" shape="494.20,818.02 496.31,821.28 497.15,824.09 496.74,826.46 495.07,828.39"/>
        <lane id=":V0014_6_1" index="1" speed="6.45" length="9.03" shape="494.20,818.02 495.45,820.17 495.69,822.19 494.93,824.08 493.16,825.83"/>
    </edge>
    <edge id=":V0015_0" function="internal">
        <lane id=":V0015_0_0" index="0" speed="6.38" length="6.95" shape="788.37,599.04 786.90,600.35 786.04,601.78 785.79,603.35 786.14,605.04"/>
    </edge>
    <edge id=":V0015_1" function="internal">
        <lane id=":V0015_1_0" index="0" speed="15.50" length="16.10" shape="788.37,599.04 775.19,608.29"/>
        <lane id=":V0015_1_1" index="1" speed="15.50" length="16.10" shape="786.53,596.42 773.35,605.67"/>
    </edge>
    <edge id=":V0015_3" function="internal">
        <lane id=":V0015_3_0" index="0" speed="18.50" length="10.85" shape="776.45,597.39 777.96,600.01 779.73,601.59 781.53,603.27 783.14,606.16"/>
        <lane id=":V0015_3_1" index="1" speed="18.50" length="10.85" shape="776.45,597.39 780.14,607.28"/>
    </edge>
    <edge id=":V0015_5" function="internal">
        <lane id=":V0015_5_0" index="0" speed="7.39" length="9.61" shape="776.45,597.39 776.94,599.72 776.58,601.88 775.38,603.86 773.35,605.67"/>
    </edge>
    <edge id=":V0016_0" function="internal">
        <lane id=":V0016_0_0" index="0" speed="12.50" length="22.41" shape="583.83,269.16 578.44,264.70 574.22,260.34 570.76,256.52 567.66,253.70"/>
    </edge>
    <edge id=":V0016_1" function="internal">
        <lane id=":V0016_1_0" index="0" speed="5.57" length="9.37" shape="585.68,266.55 583.57,264.60 583.02,262.88 584.04,261.39 586.63,260.13"/>
    </edge>
    <edge id=":V0016_2" function="internal">
        <lane id=":V0016_2_0" index="0" speed="5.57" length="9.37" shape="566.71,260.12 569.30,258.86 570.32,257.37 569.77,255.65 567.66,253.70"/>
    </edge>
    <edge id=":V0016_3" function="internal">
        <lane id=":V0016_3_0" index="0" speed="18.50" length="18.86" shape="567.74,263.15 585.60,257.10"/>
        <lane id=":V0016_3_1" index="1" speed="18.50" length="18.86" shape="568.76,266.18 586.63,260.13"/>
    </edge>
    <edge id=":V0017_0" function="internal">
        <lane id=":V0017_0_0" index="0" speed="14.75" length="20.01" shape="622.26,745.39 615.67,744.23 610.34,743.22 606.07,743.02 602.68,744.30"/>
    </edge>
    <edge id=":V0017_1" function="internal">
        <lane id=":V0017_1_0" index="0" speed="14.50" length="20.20" shape="622.70,742.22 602.69,739.44"/>
    </edge>
    <edge id=":V0017_2" function="internal">
        <lane id=":V0017_2_0" index="0" speed="26.00" length="20.15" shape="621.66,738.15 615.88,741.20 610.68,742.34 606.22,742.91 602.68,744.30"/>
    </edge>
    <edge id=":V0017_3" function="internal">
        <lane id=":V0017_3_0" index="0" speed="13.58" length="16.90" shape="617.84,733.02 613.38,736.19 609.65,738.33 606.22,739.42 602.69,739.44"/>
    </edge>
    <edge id=":V0018_0" function="internal">
        <lane id=":V0018_0_0" index="0" speed="7.16" length="7.30" shape="818.31,364.89 816.63,364.78 815.02,365.22 813.48,366.20 812.01,367.73"/>
    </edge>
    <edge id=":V0018_1" function="internal">
        <lane id=":V0018_1_0" index="0" speed="23.50" length="14.13" shape="819.01,361.77 805.22,358.68"/>
    </edge>
    <edge id=":V0018_2" function="internal">
        <lane id=":V0018_2_0" index="0" speed="13.50" length="12.05" shape="816.79,356.61 814.98,359.67 814.40,362.17 813.82,364.66 812.01,367.73"/>
        <lane id=":V0018_2_1" index="1" speed="13.50" length="12.05" shape="814.28,354.61 812.48,357.68 811.90,360.17 811.32,362.67 809.51,365.74"/>
        <lane id=":V0018_2_2" index="2" speed="13.50" length="12.05" shape="814.28,354.61 807.01,363.74"/>
    </edge>
    <edge id=":V0018_5" function="internal">
        <lane id=":V0018_5_0" index="0" speed="8.47" length="10.49" shape="814.28,354.61 812.17,356.81 809.96,358.21 807.64,358.84 805.22,358.68"/>
    </edge>
    <edge id=":V0019_0" function="internal">
        <lane id=":V0019_0_0" index="0" speed="6.55" length="7.84" shape="205.21,187.04 203.15,187.47 201.60,188.43 200.57,189.93 200.04,191.97"/>
    </edge>
    <edge id=":V0019_1" function="internal">
        <lane id=":V0019_1_0" index="0" speed="24.50" length="15.78" shape="204.98,183.85 189.24,184.96"/>
        <lane id=":V0019_1_1" index="1" speed="24.50" length="15.78" shape="204.75,180.66 189.01,181.77"/>
    </edge>
    <edge id=":V0019_3" function="internal">
        <lane id=":V0019_3_0" index="0" speed="8.50" length="16.06" shape="198.72,175.92 198.66,180.68 199.38,183.94 200.10,187.21 200.04,191.97"/>
        <lane id=":V0019_3_1" index="1" speed="8.50" length="16.06" shape="195.54,175.54 195.48,180.30 196.20,183.57 196.92,186.83 196.86,191.59"/>
        <lane id=":V0019_3_2" index="2" speed="8.50" length="16.06" shape="195.54,175.54 193.69,191.21"/>
    </edge>
    <edge id=":V0019_6" function="internal">
        <lane id=":V0019_6_0" index="0" speed="7.29" length="9.92" shape="195.54,175.54 194.87,178.11 193.56,180.01 191.61,181.23 189.01,181.77"/>
    </edge>
    <edge id=":V0020_0" function="internal">
        <lane id=":V0020_0_0" index="0" speed="6.51" length="11.56" shape="718.49,416.58 714.46,416.91 711.91,418.00 710.82,419.84 711.19,422.42"/>
    </edge>
    <edge id=":V0020_1" function="internal">
        <lane id=":V0020_1_0" index="0" speed="17.00" length="18.28" shape="718.51,413.38 700.23,413.23"/>
        <lane id=":V0020_1_1" index="1" speed="17.00" length="18.28" shape="718.54,410.18 700.26,410.03"/>
    </edge>
    <edge id=":V0020_3" function="internal">
        <lane id=":V0020_3_0" index="0" speed="15.00" length="20.72" shape="710.37,401.92 711.77,408.52 711.47,414.02 710.83,418.60 711.19,422.42"/>
    </edge>
    <edge id=":V0020_4" function="internal">
        <lane id=":V0020_4_0" index="0" speed="7.51" length="15.82" shape="707.37,403.03 708.36,407.53 707.51,410.72 704.80,412.62 700.23,413.23"/>
        <lane id=":V0020_4_1" index="1" speed="5.86" length="9.12" shape="704.37,404.15 704.95,406.74 704.45,408.58 702.89,409.68 700.26,410.03"/>
    </edge>
    <edge id=":V0021_0" function="internal">
        <lane id=":V0021_0_0" index="0" speed="6.09" length="9.06" shape="662.33,564.98 660.45,563.24 658.57,562.66 656.70,563.25 654.83,565.01"/>
        <lane id=":V0021_0_1" index="1" speed="7.67" length="15.09" shape="664.82,562.97 661.68,560.06 658.55,559.11 655.44,560.09 652.32,563.02"/>
    </edge>
    <edge id=":V0021_2" function="internal">
        <lane id=":V0021_2_0" index="0" speed="16.00" length="20.12" shape="667.30,560.95 663.16,556.63 659.76,554.18 656.37,551.75 652.26,547.47"/>
        <lane id=":V0021_2_1" index="1" speed="16.00" length="20.12" shape="667.30,560.95 654.75,545.46"/>
    </edge>
    <edge id=":V0021_4" function="internal">
        <lane id=":V0021_4_0" index="0" speed="12.00" length="20.45" shape="662.25,545.42 660.69,548.98 659.82,553.61 658.30,559.05 654.83,565.01"/>
        <lane id=":V0021_4_1" index="1" speed="12.00" length="20.45" shape="662.25,545.42 660.27,548.71 658.48,552.73 656.09,557.49 652.32,563.02"/>
        <lane id=":V0021_4_2" index="2" speed="12.00" length="20.45" shape="662.25,545.42 649.82,561.02"/>
    </edge>
    <edge id=":V0021_7" function="internal">
        <lane id=":V0021_7_0" index="0" speed="5.50" length="9.06" shape="662.25,545.42 660.38,547.18 658.51,547.77 656.63,547.20 654.75,545.46"/>
    </edge>
    <edge id=":V0022_0" function="internal">
        <lane id=":V0022_0_0" index="0" speed="12.00" length="18.40" shape="462.61,308.39 459.92,305.86 456.63,303.55 452.84,300.62 448.64,296.24"/>
        <lane id=":V0022_0_1" index="1" speed="12.00" length="18.40" shape="462.61,308.39 451.12,294.22"/>
    </edge>
    <edge id=":V0022_2" function="internal">
        <lane id=":V0022_2_0" index="0" speed="6.76" length="12.51" shape="462.61,308.39 460.37,304.94 459.79,302.13 460.86,299.97 463.58,298.44"/>
        <lane id=":V0022_2_1" index="1" speed="5.88" length="9.11" shape="462.61,308.39 461.24,306.12 461.12,304.21 462.24,302.66 464.61,301.47"/>
    </edge>
    <edge id=":V0022_4" function="internal">
        <lane id=":V0022_4_0" index="0" speed="6.79" length="12.61" shape="449.44,306.61 451.63,305.21 452.23,303.01 451.23,300.02 448.64,296.24"/>
    </edge>
    <edge id=":V0022_5" function="internal">
        <lane id=":V0022_5_0" index="0" speed="19.50" length="16.63" shape="449.44,306.61 452.34,304.57 454.71,301.45 457.73,298.10 462.55,295.41"/>
        <lane id=":V0022_5_1" index="1" speed="19.50" length="16.63" shape="449.44,306.61 452.56,305.03 455.39,302.91 458.78,300.60 463.58,298.44"/>
        <lane id=":V0022_5_2" index="2" speed="19.50" length="16.63" shape="449.44,306.61 464.61,301.47"/>
    </edge>
    <edge id=":V0023_0" function="internal">
        <lane id=":V0023_0_0" index="0" speed="6.57" length="7.58" shape="480.72,783.53 479.69,785.27 479.34,787.00 479.68,788.74 480.70,790.48"/>
        <lane id=":V0023_0_1" index="1" speed="8.08" length="11.92" shape="478.22,781.54 476.59,784.26 476.04,786.99 476.57,789.72 478.19,792.46"/>
    </edge>
    <edge id=":V0023_2" function="internal">
        <lane id=":V0023_2_0" index="0" speed="18.50" length="15.66" shape="475.72,779.54 473.23,783.48 472.16,786.58 471.10,789.68 468.60,793.61"/>
        <lane id=":V0023_2_1" index="1" speed="18.50" length="15.66" shape="475.72,779.54 466.10,791.62"/>
    </edge>
    <edge id=":V0023_4" function="internal">
        <lane id=":V0023_4_0" index="0" speed="17.50" length="15.73" shape="468.65,780.32 471.90,783.65 474.67,785.40 477.45,787.15 480.70,790.48"/>
        <lane id=":V0023_4_1" index="1" speed="17.50" length="15.73" shape="466.13,782.30 469.38,785.63 472.16,787.38 474.93,789.13 478.19,792.46"/>
        <lane id=":V0023_4_2" index="2" speed="17.50" length="15.73" shape="466.13,782.30 475.67,794.44"/>
    </edge>
    <edge id=":V0023_7" function="internal">
        <lane id=":V0023_7_0" index="0" speed="7.51" length="10.17" shape="466.13,782.30 467.51,784.63 467.96,786.96 467.49,789.29 466.10,791.62"/>
    </edge>
    <edge id=":V0024_0" function="internal">
        <lane id=":V0024_0_0" index="0" speed="5.88" length="6.80" shape="728.95,647.17 728.08,646.69 726.78,646.83 725.03,647.59 722.84,648.97"/>
    </edge>
    <edge id=":V0024_1" function="internal">
        <lane id=":V0024_1_0" index="0" speed="15.50" length="13.90" shape="728.95,647.17 720.19,636.37"/>
        <lane id=":V0024_1_1" index="1" speed="15.50" length="13.90" shape="731.43,645.16 722.68,634.36"/>
        <lane id=":V0024_1_2" index="2" speed="15.50" length="13.90" shape="733.92,643.14 725.16,632.34"/>
    </edge>
    <edge id=":V0024_4" function="internal">
        <lane id=":V0024_4_0" index="0" speed="22.50" length="17.53" shape="735.35,636.28 721.00,646.35"/>
        <lane id=":V0024_4_1" index="1" speed="22.50" length="17.53" shape="733.51,633.66 719.16,643.73"/>
    </edge>
    <edge id=":V0024_6" function="internal">
        <lane id=":V0024_6_0" index="0" speed="7.61" length="12.05" shape="733.51,633.66 730.11,635.62 727.17,636.38 724.69,635.97 722.68,634.36"/>
        <lane id=":V0024_6_1" index="1" speed="6.82" length="9.49" shape="733.51,633.66 731.25,634.80 729.10,634.96 727.08,634.14 725.16,632.34"/>
    </edge>
    <edge id=":V0025_0" function="internal">
        <lane id=":V0025_0_0" index="0" speed="7.23" length="8.93" shape="792.95,606.65 790.92,608.48 789.67,610.35 789.22,612.26 789.56,614.21"/>
        <lane id=":V0025_0_1" index="1" speed="8.63" length="13.07" shape="791.04,604.08 788.22,606.68 786.53,609.42 785.98,612.30 786.56,615.33"/>
    </edge>
    <edge id=":V0025_2" function="internal">
        <lane id=":V0025_2_0" index="0" speed="15.00" length="16.93" shape="791.04,604.08 777.46,614.19"/>
    </edge>
    <edge id=":V0025_3" function="internal">
        <lane id=":V0025_3_0" index="0" speed="17.50" length="9.59" shape="786.21,605.23 789.56,614.21"/>
        <lane id=":V0025_3_1" index="1" speed="17.50" length="9.59" shape="783.21,606.34 786.56,615.33"/>
        <lane id=":V0025_3_2" index="2" speed="17.50" length="9.59" shape="780.21,607.46 783.56,616.45"/>
    </edge>
    <edge id=":V0025_6" function="internal">
        <lane id=":V0025_6_0" index="0" speed="6.82" length="7.85" shape="780.21,607.46 780.55,609.26 780.21,610.98 779.18,612.62 777.46,614.19"/>
    </edge>
    <edge id=":V0026_0" function="internal">
        <lane id=":V0026_0_0" index="0" speed="11.50" length="20.65" shape="783.02,413.91 779.07,414.58 774.98,416.66 770.74,420.14 766.36,425.04"/>
    </edge>
    <edge id=":V0026_1" function="internal">
        <lane id=":V0026_1_0" index="0" speed="15.50" length="23.79" shape="783.02,413.91 776.78,414.35 771.92,415.41 766.69,416.47 759.38,416.91"/>
        <lane id=":V0026_1_1" index="1" speed="15.50" length="23.79" shape="783.04,410.71 776.81,411.15 771.94,412.21 766.72,413.27 759.41,413.71"/>
        <lane id=":V0026_1_2" index="2" speed="15.50" length="23.79" shape="783.04,410.71 759.43,410.51"/>
    </edge>
    <edge id=":V0026_4" function="internal">
        <lane id=":V0026_4_0" index="0" speed="7.50" length="24.08" shape="781.07,406.57 766.36,425.04"/>
        <lane id=":V0026_4_1" index="1" speed="7.50" length="24.08" shape="781.07,406.57 776.29,411.76 772.46,414.81 768.63,417.85 763.85,423.04"/>
        <lane id=":V0026_4_2" index="2" speed="7.50" length="24.08" shape="781.07,406.57 775.85,411.52 771.21,413.81 766.58,416.10 761.35,421.05"/>
    </edge>
    <edge id=":V0026_7" function="internal">
        <lane id=":V0026_7_0" index="0" speed="11.50" length="21.99" shape="778.57,404.58 774.61,408.61 770.10,411.48 765.03,413.18 759.41,413.71"/>
        <lane id=":V0026_7_1" index="1" speed="11.50" length="19.09" shape="776.06,402.58 772.63,406.08 768.71,408.57 764.31,410.05 759.43,410.51"/>
    </edge>
    <edge id=":V0027_0" function="internal">
        <lane id=":V0027_0_0" index="0" speed="8.22" length="8.04" shape="353.54,178.90 352.38,177.94 350.73,177.30 348.61,177.01 345.99,177.04"/>
        <lane id=":V0027_0_1" index="1" speed="9.58" length="11.10" shape="356.03,176.89 354.30,175.36 352.02,174.35 349.17,173.84 345.77,173.85"/>
    </edge>
    <edge id=":V0027_2" function="internal">
        <lane id=":V0027_2_0" index="0" speed="17.00" length="13.64" shape="356.03,176.89 347.43,166.29"/>
    </edge>
    <edge id=":V0027_3" function="internal">
        <lane id=":V0027_3_0" index="0" speed="21.00" length="11.27" shape="355.82,169.93 353.03,171.13 351.31,173.46 349.38,175.80 345.99,177.04"/>
        <lane id=":V0027_3_1" index="1" speed="21.00" length="11.27" shape="355.82,169.93 352.90,170.64 350.94,171.88 348.91,173.12 345.77,173.85"/>
        <lane id=":V0027_3_2" index="2" speed="21.00" length="11.27" shape="355.82,169.93 345.54,170.66"/>
    </edge>
    <edge id=":V0027_6" function="internal">
        <lane id=":V0027_6_0" index="0" speed="8.91" length="9.52" shape="355.82,169.93 353.37,169.84 351.15,169.20 349.18,168.02 347.43,166.29"/>
    </edge>
    <edge id=":V0028_0" function="internal">