<configuration><input><net-file value="13.net.xml" /><route-files value="13.rou.xml" /></input><time><begin value="0" /></time></configuration>