<?xml version="1.0" encoding="UTF-8"?>

<!-- generated on 2023-06-26 02:05:21 by Eclipse SUMO netconvert Version 1.16.0
<configuration xmlns:xsi="http://www.w3.org/2001/XMLSchema-instance" xsi:noNamespaceSchemaLocation="http://sumo.dlr.de/xsd/netconvertConfiguration.xsd">

    <input>
        <node-files value="data/simulationConfigurations/tests/1\1.nod.xml"/>
        <edge-files value="data/simulationConfigurations/tests/1\1.edg.xml"/>
    </input>

    <output>
        <output-file value="data/simulationConfigurations/tests/1\1.net.xml"/>
    </output>

</configuration>
-->

<net version="1.16" junctionCornerDetail="5" limitTurnSpeed="5.50" xmlns:xsi="http://www.w3.org/2001/XMLSchema-instance" xsi:noNamespaceSchemaLocation="http://sumo.dlr.de/xsd/net_file.xsd">

    <location netOffset="-53.45,-18.03" convBoundary="0.00,0.00,995.15,791.76" origBoundary="53.45,18.03,1048.60,809.79" projParameter="!"/>

    <edge id=":V0001_0" function="internal">
        <lane id=":V0001_0_0" index="0" speed="11.70" length="64.82" shape="1001.02,672.31 990.18,650.96 984.67,644.53 984.48,653.00 989.63,676.38"/>
        <lane id=":V0001_0_1" index="1" speed="10.09" length="47.60" shape="1001.02,672.31 993.06,656.64 989.01,651.91 988.88,658.13 992.65,675.30"/>
    </edge>
    <edge id=":V0001_2" function="internal">
        <lane id=":V0001_2_0" index="0" speed="10.22" length="26.68" shape="1001.02,672.31 1000.42,675.68 995.98,678.88 988.62,681.93 979.26,684.86"/>
    </edge>
    <edge id=":V0001_3" function="internal">
        <lane id=":V0001_3_0" index="0" speed="13.12" length="52.38" shape="997.99,673.39 995.21,676.91 984.42,679.30 967.84,680.81 947.66,681.70"/>
    </edge>
    <edge id=":V0001_4" function="internal">
        <lane id=":V0001_4_0" index="0" speed="12.78" length="56.04" shape="997.99,673.39 996.55,680.19 985.50,682.30 968.19,681.02 947.99,677.65"/>
        <lane id=":V0001_4_1" index="1" speed="12.02" length="49.37" shape="994.96,674.47 992.91,678.65 982.72,679.42 967.06,677.73 948.60,674.51"/>
        <lane id=":V0001_4_2" index="2" speed="11.75" length="47.15" shape="994.96,674.47 992.38,676.89 982.39,676.71 967.26,674.64 949.21,671.37"/>
    </edge>
    <edge id=":V0003_0" function="internal">
        <lane id=":V0003_0_0" index="0" speed="11.62" length="37.82" shape="316.42,562.00 308.48,553.99 304.85,546.25 306.32,538.75 313.68,531.48"/>
        <lane id=":V0003_0_1" index="1" speed="10.65" length="31.57" shape="318.46,559.53 311.72,552.86 308.45,546.42 309.44,540.19 315.47,534.13"/>
    </edge>
    <edge id=":V0003_2" function="internal">
        <lane id=":V0003_2_0" index="0" speed="8.52" length="28.54" shape="318.46,559.53 313.55,552.93 312.44,545.80 315.23,540.32 321.98,538.67"/>
        <lane id=":V0003_2_1" index="1" speed="7.90" length="24.23" shape="318.46,559.53 314.31,553.93 313.43,547.89 315.86,543.25 321.61,541.85"/>
        <lane id=":V0003_2_2" index="2" speed="7.21" length="19.93" shape="318.46,559.53 315.08,554.93 314.42,549.98 316.48,546.17 321.25,545.03"/>
    </edge>
    <edge id=":V0003_5" function="internal">
        <lane id=":V0003_5_0" index="0" speed="9.61" length="33.48" shape="319.98,556.04 311.52,552.18 307.27,545.72 307.80,538.27 313.68,531.48"/>
        <lane id=":V0003_5_1" index="1" speed="8.46" length="25.54" shape="320.35,552.85 313.88,549.91 310.62,544.98 311.00,539.31 315.47,534.13"/>
    </edge>
    <edge id=":V0003_7" function="internal">
        <lane id=":V0003_7_0" index="0" speed="4.21" length="6.80" shape="320.71,549.66 319.11,548.30 318.67,547.08 319.38,545.99 321.25,545.03"/>
    </edge>
    <edge id=":V0004_0" function="internal">
        <lane id=":V0004_0_0" index="0" speed="17.37" length="38.35" shape="605.74,792.19 599.06,792.57 591.15,790.24 582.00,785.20 571.61,777.44"/>
        <lane id=":V0004_0_1" index="1" speed="17.11" length="37.20" shape="605.74,792.19 600.59,792.02 593.52,789.09 584.55,783.41 573.65,774.97"/>
        <lane id=":V0004_0_2" index="2" speed="16.90" length="36.28" shape="605.74,792.19 602.11,791.46 595.90,787.94 587.09,781.62 575.69,772.51"/>
    </edge>
    <edge id=":V0004_3" function="internal">
        <lane id=":V0004_3_0" index="0" speed="14.74" length="36.37" shape="605.74,792.19 600.97,791.67 594.87,787.74 587.43,780.41 578.65,769.67"/>
        <lane id=":V0004_3_1" index="1" speed="14.51" length="35.20" shape="605.74,792.19 602.37,791.19 597.15,786.78 590.10,778.96 581.19,767.74"/>
    </edge>
    <edge id=":V0004_5" function="internal">
        <lane id=":V0004_5_0" index="0" speed="12.25" length="34.88" shape="605.74,792.19 600.19,791.85 595.08,787.50 590.42,779.15 586.21,766.80"/>
        <lane id=":V0004_5_1" index="1" speed="11.91" length="32.94" shape="605.74,792.19 601.53,791.46 597.39,786.85 593.31,778.34 589.30,765.94"/>
        <lane id=":V0004_5_2" index="2" speed="11.61" length="31.26" shape="605.74,792.19 602.88,791.08 599.70,786.19 596.20,777.52 592.38,765.08"/>
    </edge>
    <edge id=":V0004_8" function="internal">
        <lane id=":V0004_8_0" index="0" speed="7.18" length="19.40" shape="605.74,792.19 601.19,791.83 599.10,788.39 599.40,783.36 602.02,778.21"/>
        <lane id=":V0004_8_1" index="1" speed="6.60" length="16.08" shape="605.74,792.19 602.25,791.83 601.15,788.85 602.05,784.55 604.52,780.21"/>
        <lane id=":V0004_8_2" index="2" speed="6.44" length="15.23" shape="605.74,792.19 602.57,792.50 601.73,790.94 603.21,787.51 607.03,782.20"/>
    </edge>
    <edge id=":V0005_0" function="internal">
        <lane id=":V0005_0_0" index="0" speed="5.89" length="10.32" shape="655.02,582.52 657.79,582.39 659.25,581.21 659.38,579.00 658.20,575.75"/>
        <lane id=":V0005_0_1" index="1" speed="6.78" length="14.20" shape="655.02,582.52 659.39,582.46 661.85,581.07 662.41,578.37 661.07,574.34"/>
    </edge>
    <edge id=":V0005_2" function="internal">
        <lane id=":V0005_2_0" index="0" speed="9.15" length="16.21" shape="655.02,582.52 659.13,582.36 662.50,580.86 665.11,578.04 666.97,573.88"/>
        <lane id=":V0005_2_1" index="1" speed="9.50" length="18.49" shape="655.02,582.52 660.54,582.55 664.88,581.28 668.05,578.70 670.03,574.82"/>
    </edge>
    <edge id=":V0006_0" function="internal">
        <lane id=":V0006_0_0" index="0" speed="7.00" length="16.60" shape="781.10,207.18 781.62,210.63 782.67,213.91 784.29,217.63 786.54,222.39"/>
        <lane id=":V0006_0_1" index="1" speed="7.00" length="16.60" shape="781.10,207.18 781.15,210.81 781.17,214.49 781.79,218.66 783.64,223.75"/>
    </edge>
    <edge id=":V0006_2" function="internal">
        <lane id=":V0006_2_0" index="0" speed="5.50" length="26.29" shape="781.10,207.18 780.17,214.16 776.43,217.88 770.41,218.81 762.65,217.42"/>
    </edge>
    <edge id=":V0006_3" function="internal">
        <lane id=":V0006_3_0" index="0" speed="8.49" length="23.25" shape="781.10,207.18 780.01,213.10 776.23,215.99 770.66,216.09 764.21,213.64"/>
    </edge>
    <edge id=":V0006_4" function="internal">
        <lane id=":V0006_4_0" index="0" speed="5.82" length="10.75" shape="763.67,230.28 765.81,228.29 766.06,226.52 764.43,224.95 760.91,223.58"/>
    </edge>
    <edge id=":V0006_5" function="internal">
        <lane id=":V0006_5_0" index="0" speed="8.53" length="22.09" shape="763.67,230.28 768.87,225.74 770.69,221.45 769.14,217.42 764.21,213.64"/>
    </edge>
    <edge id=":V0006_6" function="internal">
        <lane id=":V0006_6_0" index="0" speed="9.44" length="22.59" shape="763.67,230.28 770.58,225.87 776.50,222.90 781.00,221.98 783.64,223.75"/>
    </edge>
    <edge id=":V0006_7" function="internal">
        <lane id=":V0006_7_0" index="0" speed="8.52" length="16.52" shape="772.39,230.83 772.51,227.66 770.78,224.88 767.20,222.49 761.78,220.50"/>
    </edge>
    <edge id=":V0006_8" function="internal">
        <lane id=":V0006_8_0" index="0" speed="10.41" length="20.85" shape="772.39,230.83 773.13,225.70 772.01,221.12 769.04,217.10 764.21,213.64"/>
    </edge>
    <edge id=":V0006_9" function="internal">
        <lane id=":V0006_9_0" index="0" speed="6.68" length="15.67" shape="775.45,231.77 777.74,225.50 779.86,222.07 781.83,221.49 783.64,223.75"/>
    </edge>
    <edge id=":V0007_0" function="internal">
        <lane id=":V0007_0_0" index="0" speed="11.61" length="46.46" shape="2.48,16.50 -1.30,5.98 3.61,-1.70 14.52,-6.39 28.72,-7.97"/>
        <lane id=":V0007_0_1" index="1" speed="11.27" length="43.69" shape="2.48,16.50 -0.84,6.87 4.31,0.25 15.11,-3.56 28.72,-4.77"/>
        <lane id=":V0007_0_2" index="2" speed="10.95" length="41.14" shape="2.48,16.50 -0.42,7.73 4.95,2.17 15.65,-0.74 28.71,-1.57"/>
    </edge>
    <edge id=":V0007_3" function="internal">
        <lane id=":V0007_3_0" index="0" speed="9.19" length="34.37" shape="5.03,14.56 3.14,7.23 8.30,2.51 17.50,0.94 27.75,3.05"/>
        <lane id=":V0007_3_1" index="1" speed="8.19" length="26.88" shape="7.58,12.62 6.25,7.24 10.66,4.36 18.25,3.94 26.47,5.98"/>
    </edge>
    <edge id=":V0007_5" function="internal">
        <lane id=":V0007_5_0" index="0" speed="10.31" length="51.09" shape="23.92,11.76 42.46,16.59 49.06,17.24 43.73,13.70 26.47,5.98"/>
        <lane id=":V0007_5_1" index="1" speed="21.00" length="0.96" shape="25.22,8.80 24.88,8.71 24.75,8.70 24.85,8.76 25.18,8.91"/>
    </edge>
    <edge id=":V0007_7" function="internal">
        <lane id=":V0007_7_0" index="0" speed="6.18" length="15.98" shape="25.22,8.80 22.21,4.90 21.78,1.87 23.95,-0.29 28.71,-1.57"/>
    </edge>
    <edge id=":V0008_0" function="internal">
        <lane id=":V0008_0_0" index="0" speed="13.57" length="51.95" shape="384.28,39.97 379.80,21.79 377.75,6.61 379.31,-3.77 385.67,-7.57"/>
        <lane id=":V0008_0_1" index="1" speed="12.82" length="46.26" shape="387.36,39.11 383.15,22.48 380.83,8.60 381.35,-0.89 385.63,-4.37"/>
        <lane id=":V0008_0_2" index="2" speed="12.08" length="40.93" shape="390.45,38.26 386.48,23.12 383.90,10.55 383.38,1.98 385.60,-1.17"/>
    </edge>
    <edge id=":V0008_3" function="internal">
        <lane id=":V0008_3_0" index="0" speed="12.08" length="45.68" shape="394.11,36.86 387.07,21.55 382.33,8.34 381.37,-0.92 385.63,-4.37"/>
        <lane id=":V0008_3_1" index="1" speed="11.30" length="39.78" shape="396.99,35.45 390.48,21.65 385.72,9.95 383.75,1.84 385.60,-1.17"/>
    </edge>
    <edge id=":V0008_5" function="internal">
        <lane id=":V0008_5_0" index="0" speed="6.12" length="14.32" shape="388.32,5.94 383.26,2.79 381.12,0.56 381.90,-0.76 385.60,-1.17"/>
    </edge>
    <edge id=":V0008_6" function="internal">
        <lane id=":V0008_6_0" index="0" speed="15.50" length="18.01" shape="367.63,-7.62 385.67,-7.57"/>
        <lane id=":V0008_6_1" index="1" speed="15.50" length="18.01" shape="367.63,-4.42 385.63,-4.37"/>
        <lane id=":V0008_6_2" index="2" speed="15.50" length="18.01" shape="367.62,-1.22 385.60,-1.17"/>
    </edge>
    <edge id=":V0010_0" function="internal">
        <lane id=":V0010_0_0" index="0" speed="12.24" length="24.10" shape="761.04,-3.87 763.95,-2.65 767.14,0.96 770.62,6.96 774.39,15.34"/>
        <lane id=":V0010_0_1" index="1" speed="11.32" length="20.51" shape="761.01,-0.67 762.93,0.42 765.31,3.65 768.14,9.03 771.42,16.55"/>
    </edge>
    <edge id=":V0010_2" function="internal">
        <lane id=":V0010_2_0" index="0" speed="9.06" length="17.32" shape="760.98,2.53 763.30,3.49 765.11,6.31 766.42,10.99 767.22,17.53"/>
    </edge>
    <edge id=":V0011_0" function="internal">
        <lane id=":V0011_0_0" index="0" speed="8.00" length="12.42" shape="528.71,703.93 527.17,702.73 524.69,701.91 521.25,701.48 516.87,701.44"/>
    </edge>
    <edge id=":V0011_1" function="internal">
        <lane id=":V0011_1_0" index="0" speed="17.50" length="16.54" shape="528.71,703.93 518.71,690.77"/>
        <lane id=":V0011_1_1" index="1" speed="17.50" length="16.54" shape="531.26,702.00 521.26,688.83"/>
    </edge>
    <edge id=":V0011_3" function="internal">
        <lane id=":V0011_3_0" index="0" speed="13.00" length="16.54" shape="533.30,697.73 516.77,698.24"/>
        <lane id=":V0011_3_1" index="1" speed="13.00" length="16.54" shape="533.20,694.53 516.67,695.04"/>
    </edge>
    <edge id=":V0011_5" function="internal">
        <lane id=":V0011_5_0" index="0" speed="10.68" length="13.77" shape="533.20,694.53 529.66,694.26 526.49,693.22 523.69,691.41 521.26,688.83"/>
    </edge>
    <edge id=":V0012_0" function="internal">
        <lane id=":V0012_0_0" index="0" speed="19.00" length="18.93" shape="734.69,636.34 729.33,634.80 725.88,633.01 722.42,631.22 717.06,629.67"/>
        <lane id=":V0012_0_1" index="1" speed="19.00" length="18.93" shape="735.30,633.20 729.94,631.66 726.48,629.87 723.03,628.08 717.67,626.53"/>
    </edge>
    <edge id=":V0012_2" function="internal">
        <lane id=":V0012_2_0" index="0" speed="5.71" length="9.20" shape="735.90,630.06 733.31,629.18 732.05,627.81 732.12,625.96 733.52,623.60"/>
    </edge>
    <edge id=":V0012_3" function="internal">
        <lane id=":V0012_3_0" index="0" speed="5.76" length="9.38" shape="719.28,636.33 720.75,633.89 720.88,631.97 719.65,630.56 717.06,629.67"/>
        <lane id=":V0012_3_1" index="1" speed="7.46" length="16.70" shape="721.78,638.33 724.37,634.02 724.55,630.61 722.32,628.12 717.67,626.53"/>
    </edge>
    <edge id=":V0012_5" function="internal">
        <lane id=":V0012_5_0" index="0" speed="6.50" length="18.83" shape="721.78,638.33 733.52,623.60"/>
    </edge>
    <edge id=":V0013_0" function="internal">
        <lane id=":V0013_0_0" index="0" speed="17.00" length="12.74" shape="539.71,575.51 536.30,563.24"/>
    </edge>
    <edge id=":V0013_1" function="internal">
        <lane id=":V0013_1_0" index="0" speed="5.84" length="9.13" shape="539.71,575.51 539.36,572.87 540.02,571.09 541.67,570.16 544.34,570.09"/>
    </edge>
    <edge id=":V0013_2" function="internal">
        <lane id=":V0013_2_0" index="0" speed="5.84" length="9.13" shape="531.68,568.67 534.34,568.59 536.00,567.66 536.65,565.88 536.30,563.24"/>
    </edge>
    <edge id=":V0013_3" function="internal">
        <lane id=":V0013_3_0" index="0" speed="9.50" length="12.74" shape="531.68,568.67 544.34,570.09"/>
    </edge>
    <edge id=":V0014_0" function="internal">
        <lane id=":V0014_0_0" index="0" speed="6.91" length="11.13" shape="741.51,311.76 743.99,312.25 746.11,311.46 747.87,309.39 749.28,306.05"/>
    </edge>
    <edge id=":V0014_1" function="internal">
        <lane id=":V0014_1_0" index="0" speed="17.50" length="14.97" shape="741.51,311.76 744.80,312.61 748.05,312.79 751.75,313.16 756.35,314.56"/>
        <lane id=":V0014_1_1" index="1" speed="17.50" length="14.97" shape="741.51,311.76 755.11,317.51"/>
    </edge>
    <edge id=":V0014_3" function="internal">
        <lane id=":V0014_3_0" index="0" speed="15.00" length="14.43" shape="745.04,319.84 749.28,306.05"/>
        <lane id=":V0014_3_1" index="1" speed="15.00" length="14.43" shape="748.10,320.78 752.34,306.99"/>
    </edge>
    <edge id=":V0014_5" function="internal">
        <lane id=":V0014_5_0" index="0" speed="6.30" length="9.04" shape="748.10,320.78 749.17,318.51 750.70,317.21 752.68,316.87 755.11,317.51"/>
    </edge>
    <edge id=":V0015_0" function="internal">
        <lane id=":V0015_0_0" index="0" speed="11.50" length="13.41" shape="559.76,374.88 553.85,362.83"/>
        <lane id=":V0015_0_1" index="1" speed="11.50" length="13.41" shape="562.63,373.47 556.73,361.43"/>
    </edge>
    <edge id=":V0015_2" function="internal">
        <lane id=":V0015_2_0" index="0" speed="6.93" length="9.28" shape="562.63,373.47 561.80,371.02 561.83,368.84 562.73,366.94 564.49,365.31"/>
    </edge>
    <edge id=":V0015_3" function="internal">
        <lane id=":V0015_3_0" index="0" speed="6.81" length="8.91" shape="551.22,370.44 553.18,368.75 554.27,366.92 554.49,364.95 553.85,362.83"/>
    </edge>
    <edge id=":V0015_4" function="internal">
        <lane id=":V0015_4_0" index="0" speed="19.50" length="13.87" shape="553.02,373.09 564.49,365.31"/>
    </edge>
    <edge id=":V0016_0" function="internal">
        <lane id=":V0016_0_0" index="0" speed="5.74" length="9.18" shape="883.30,421.23 884.78,423.52 886.42,424.41 888.22,423.92 890.19,422.05"/>
    </edge>
    <edge id=":V0016_1" function="internal">
        <lane id=":V0016_1_0" index="0" speed="13.00" length="19.88" shape="883.30,421.23 891.74,439.24"/>
        <lane id=":V0016_1_1" index="1" speed="13.00" length="19.88" shape="880.40,422.59 888.85,440.60"/>
        <lane id=":V0016_1_2" index="2" speed="13.00" length="19.88" shape="877.51,423.95 885.95,441.96"/>
    </edge>
    <edge id=":V0016_4" function="internal">
        <lane id=":V0016_4_0" index="0" speed="7.50" length="22.01" shape="879.06,441.14 881.23,437.61 883.46,433.06 886.26,427.78 890.19,422.05"/>
        <lane id=":V0016_4_1" index="1" speed="7.50" length="22.01" shape="879.06,441.14 892.69,424.04"/>
    </edge>
    <edge id=":V0016_6" function="internal">
        <lane id=":V0016_6_0" index="0" speed="6.66" length="12.83" shape="879.06,441.14 882.04,438.13 884.67,437.04 886.93,437.86 888.85,440.60"/>
        <lane id=":V0016_6_1" index="1" speed="5.74" length="9.18" shape="879.06,441.14 881.02,439.27 882.83,438.78 884.47,439.67 885.95,441.96"/>
    </edge>
    <edge id=":V0017_0" function="internal">
        <lane id=":V0017_0_0" index="0" speed="15.85" length="20.66" shape="491.17,710.84 486.50,706.86 482.93,704.32 478.95,703.03 472.99,702.79"/>
        <lane id=":V0017_0_1" index="1" speed="16.70" length="23.00" shape="493.21,708.37 488.00,703.97 484.00,701.21 479.53,699.83 472.89,699.60"/>
    </edge>
    <edge id=":V0017_2" function="internal">
        <lane id=":V0017_2_0" index="0" speed="17.00" length="24.93" shape="495.25,705.91 488.97,701.35 483.96,698.63 479.31,696.21 474.11,692.56"/>
        <lane id=":V0017_2_1" index="1" speed="17.00" length="24.93" shape="495.25,705.91 476.15,690.09"/>
    </edge>
    <edge id=":V0017_4" function="internal">
        <lane id=":V0017_4_0" index="0" speed="15.50" length="23.59" shape="496.57,702.06 472.99,702.79"/>
        <lane id=":V0017_4_1" index="1" speed="15.50" length="23.59" shape="496.47,698.87 472.89,699.60"/>
        <lane id=":V0017_4_2" index="2" speed="15.50" length="23.59" shape="496.37,695.67 472.79,696.40"/>
    </edge>
    <edge id=":V0017_7" function="internal">
        <lane id=":V0017_7_0" index="0" speed="9.00" length="21.76" shape="496.37,695.67 489.87,695.83 485.22,695.39 481.08,693.70 476.15,690.09"/>
    </edge>
    <edge id=":V0018_0" function="internal">
        <lane id=":V0018_0_0" index="0" speed="11.66" length="18.25" shape="415.09,126.94 413.62,124.55 410.57,122.27 405.94,120.11 399.74,118.08"/>
    </edge>
    <edge id=":V0018_1" function="internal">
        <lane id=":V0018_1_0" index="0" speed="17.50" length="18.39" shape="415.09,126.94 413.17,123.78 410.07,120.83 406.74,117.07 404.15,111.48"/>
        <lane id=":V0018_1_1" index="1" speed="17.50" length="18.39" shape="415.09,126.94 413.64,123.59 411.57,120.25 409.29,116.17 407.23,110.62"/>
        <lane id=":V0018_1_2" index="2" speed="17.50" length="18.39" shape="415.09,126.94 410.31,109.76"/>
    </edge>
    <edge id=":V0018_4" function="internal">
        <lane id=":V0018_4_0" index="0" speed="23.50" length="19.63" shape="418.62,123.42 399.74,118.08"/>
        <lane id=":V0018_4_1" index="1" speed="23.50" length="19.63" shape="419.50,120.34 400.61,115.00"/>
    </edge>
    <edge id=":V0018_6" function="internal">
        <lane id=":V0018_6_0" index="0" speed="11.06" length="16.34" shape="419.50,120.34 414.84,118.63 411.24,116.44 408.70,113.77 407.23,110.62"/>
        <lane id=":V0018_6_1" index="1" speed="10.49" length="14.66" shape="419.50,120.34 416.38,118.96 413.81,116.74 411.79,113.67 410.31,109.76"/>
    </edge>
    <edge id=":V0019_0" function="internal">
        <lane id=":V0019_0_0" index="0" speed="14.50" length="26.03" shape="688.04,689.74 662.02,690.55"/>
    </edge>
    <edge id=":V0019_1" function="internal">
        <lane id=":V0019_1_0" index="0" speed="5.52" length="9.52" shape="688.04,689.74 685.07,689.48 683.61,688.46 683.67,686.68 685.24,684.14"/>
    </edge>
    <edge id=":V0019_2" function="internal">
        <lane id=":V0019_2_0" index="0" speed="5.52" length="9.52" shape="664.93,699.34 666.49,696.81 666.55,695.03 665.09,694.01 662.12,693.74"/>
        <lane id=":V0019_2_1" index="1" speed="7.39" length="18.36" shape="667.43,701.34 670.45,696.45 670.56,693.02 667.75,691.05 662.02,690.55"/>
    </edge>
    <edge id=":V0019_4" function="internal">
        <lane id=":V0019_4_0" index="0" speed="13.50" length="24.68" shape="669.93,703.34 674.31,697.04 676.89,692.04 679.19,687.39 682.74,682.15"/>
        <lane id=":V0019_4_1" index="1" speed="13.50" length="24.68" shape="669.93,703.34 685.24,684.14"/>
    </edge>
    <edge id=":V0020_0" function="internal">
        <lane id=":V0020_0_0" index="0" speed="12.20" length="12.29" shape="435.70,581.50 433.35,578.87 431.22,577.60 428.67,577.00 425.06,576.38"/>
        <lane id=":V0020_0_1" index="1" speed="13.29" length="14.65" shape="438.25,579.56 435.46,576.40 432.95,574.80 429.95,574.01 425.67,573.24"/>
    </edge>
    <edge id=":V0020_2" function="internal">
        <lane id=":V0020_2_0" index="0" speed="21.00" length="16.23" shape="438.25,579.56 428.43,566.64"/>
    </edge>
    <edge id=":V0020_3" function="internal">
        <lane id=":V0020_3_0" index="0" speed="17.50" length="15.31" shape="440.40,576.10 435.89,575.73 432.73,576.24 429.58,576.75 425.06,576.38"/>
        <lane id=":V0020_3_1" index="1" speed="17.50" length="15.31" shape="441.01,572.95 436.50,572.59 433.34,573.10 430.18,573.61 425.67,573.24"/>
        <lane id=":V0020_3_2" index="2" speed="17.50" length="15.31" shape="441.01,572.95 426.28,570.10"/>
    </edge>
    <edge id=":V0020_6" function="internal">
        <lane id=":V0020_6_0" index="0" speed="13.21" length="14.48" shape="441.01,572.95 436.56,571.96 433.26,570.79 430.70,569.11 428.43,566.64"/>
    </edge>
    <edge id=":V0021_0" function="internal">
        <lane id=":V0021_0_0" index="0" speed="13.50" length="24.31" shape="425.16,562.34 410.46,542.98"/>
    </edge>
    <edge id=":V0021_1" function="internal">
        <lane id=":V0021_1_0" index="0" speed="5.48" length="9.67" shape="425.16,562.34 423.60,559.70 423.58,557.93 425.10,557.05 428.17,557.04"/>
    </edge>
    <edge id=":V0021_2" function="internal">
        <lane id=":V0021_2_0" index="0" speed="5.48" length="9.67" shape="407.45,548.27 410.52,548.26 412.04,547.38 412.02,545.62 410.46,542.98"/>
    </edge>
    <edge id=":V0021_3" function="internal">
        <lane id=":V0021_3_0" index="0" speed="8.50" length="21.86" shape="407.09,551.45 414.26,552.76 419.83,554.49 424.31,556.10 428.17,557.04"/>
    </edge>
    <edge id=":V0022_0" function="internal">
        <lane id=":V0022_0_0" index="0" speed="7.34" length="9.61" shape="568.54,703.19 567.48,700.36 566.09,698.35 564.38,697.18 562.34,696.83"/>
        <lane id=":V0022_0_1" index="1" speed="8.71" length="13.89" shape="571.62,702.34 570.11,698.45 568.04,695.70 565.42,694.10 562.25,693.63"/>
    </edge>
    <edge id=":V0022_2" function="internal">
        <lane id=":V0022_2_0" index="0" speed="15.50" length="13.65" shape="574.71,701.48 571.05,688.33"/>
    </edge>
    <edge id=":V0022_3" function="internal">
        <lane id=":V0022_3_0" index="0" speed="13.00" length="16.16" shape="578.50,696.33 562.34,696.83"/>
        <lane id=":V0022_3_1" index="1" speed="13.00" length="16.16" shape="578.40,693.13 562.25,693.63"/>
    </edge>
    <edge id=":V0022_5" function="internal">
        <lane id=":V0022_5_0" index="0" speed="7.32" length="9.56" shape="578.40,693.13 575.71,692.90 573.58,692.02 572.03,690.50 571.05,688.33"/>
    </edge>
    <edge id=":V0023_0" function="internal">
        <lane id=":V0023_0_0" index="0" speed="6.00" length="21.72" shape="478.51,209.09 475.94,202.71 474.41,197.08 473.29,192.29 471.95,188.43"/>
    </edge>
    <edge id=":V0023_1" function="internal">
        <lane id=":V0023_1_0" index="0" speed="5.46" length="4.15" shape="481.39,207.68 480.27,204.63 480.42,203.75"/>
    </edge>
    <edge id=":V0023_5" function="internal">
        <lane id=":V0023_5_0" index="0" speed="5.46" length="5.84" shape="480.42,203.75 480.56,202.91 482.26,202.53 485.37,203.47"/>
    </edge>
    <edge id=":V0023_2" function="internal">
        <lane id=":V0023_2_0" index="0" speed="5.46" length="9.99" shape="467.97,192.64 471.08,193.59 472.78,193.20 473.07,191.48 471.95,188.43"/>
    </edge>
    <edge id=":V0023_3" function="internal">
        <lane id=":V0023_3_0" index="0" speed="19.00" length="20.25" shape="467.97,192.64 486.62,200.52"/>
        <lane id=":V0023_3_1" index="1" speed="19.00" length="20.25" shape="466.72,195.59 485.37,203.47"/>
    </edge>
    <edge id=":V0024_0" function="internal">
        <lane id=":V0024_0_0" index="0" speed="14.50" length="22.04" shape="843.97,344.88 847.22,349.83 850.97,352.19 855.74,353.62 862.09,355.79"/>
        <lane id=":V0024_0_1" index="1" speed="14.50" length="24.23" shape="841.07,346.24 844.43,351.37 848.51,354.18 853.80,356.14 860.84,358.74"/>
    </edge>
    <edge id=":V0024_2" function="internal">
        <lane id=":V0024_2_0" index="0" speed="8.50" length="23.77" shape="841.07,346.24 844.59,351.39 848.58,354.73 852.74,358.41 856.76,364.63"/>
        <lane id=":V0024_2_1" index="1" speed="8.50" length="23.77" shape="841.07,346.24 844.16,351.65 847.19,355.51 850.35,359.68 853.86,365.99"/>
        <lane id=":V0024_2_2" index="2" speed="8.50" length="23.77" shape="841.07,346.24 850.97,367.35"/>
    </edge>
    <edge id=":V0024_5" function="internal">
        <lane id=":V0024_5_0" index="0" speed="18.50" length="24.54" shape="838.24,349.18 860.84,358.74"/>
        <lane id=":V0024_5_1" index="1" speed="18.50" length="24.54" shape="836.99,352.13 859.59,361.69"/>
    </edge>
    <edge id=":V0024_7" function="internal">
        <lane id=":V0024_7_0" index="0" speed="12.50" length="22.67" shape="836.99,352.13 842.86,354.55 847.14,356.81 850.57,360.20 853.86,365.99"/>
        <lane id=":V0024_7_1" index="1" speed="12.50" length="21.46" shape="836.99,352.13 842.44,354.84 845.79,357.69 848.23,361.57 850.97,367.35"/>
    </edge>
    <edge id=":V0025_0" function="internal">
        <lane id=":V0025_0_0" index="0" speed="11.00" length="13.58" shape="495.86,417.68 492.23,404.59"/>
    </edge>
    <edge id=":V0025_1" function="internal">
        <lane id=":V0025_1_0" index="0" speed="7.72" length="9.87" shape="495.86,417.68 495.58,415.31 496.12,413.12 497.46,411.12 499.61,409.30"/>
    </edge>
    <edge id=":V0025_2" function="internal">
        <lane id=":V0025_2_0" index="0" speed="7.72" length="9.87" shape="488.48,412.98 490.63,411.15 491.97,409.15 492.50,406.96 492.23,404.59"/>
    </edge>
    <edge id=":V0025_3" function="internal">
        <lane id=":V0025_3_0" index="0" speed="16.00" length="11.28" shape="488.48,412.98 497.81,406.65"/>
        <lane id=":V0025_3_1" index="1" speed="16.00" length="11.28" shape="490.27,415.62 499.61,409.30"/>
    </edge>
    <edge id=":V0026_0" function="internal">
        <lane id=":V0026_0_0" index="0" speed="8.70" length="9.51" shape="677.66,281.30 680.72,282.41 683.26,282.97 685.29,282.96 686.81,282.39"/>
    </edge>
    <edge id=":V0026_1" function="internal">
        <lane id=":V0026_1_0" index="0" speed="18.00" length="10.24" shape="676.42,284.24 685.84,288.23"/>
    </edge>
    <edge id=":V0026_2" function="internal">
        <lane id=":V0026_2_0" index="0" speed="21.00" length="11.97" shape="676.89,289.11 686.81,282.39"/>
    </edge>
    <edge id=":V0026_3" function="internal">
        <lane id=":V0026_3_0" index="0" speed="8.65" length="9.39" shape="676.89,289.11 679.04,287.98 681.25,287.45 683.52,287.54 685.84,288.23"/>
    </edge>
    <edge id=":V0027_0" function="internal">
        <lane id=":V0027_0_0" index="0" speed="14.27" length="20.92" shape="447.81,139.16 445.19,135.14 441.60,131.79 437.03,129.09 431.48,127.06"/>
    </edge>
    <edge id=":V0027_1" function="internal">
        <lane id=":V0027_1_0" index="0" speed="15.50" length="22.34" shape="447.81,139.16 445.52,135.63 442.31,131.57 438.68,126.67 435.16,120.62"/>
        <lane id=":V0027_1_1" index="1" speed="15.50" length="22.34" shape="447.81,139.16 438.03,119.21"/>
    </edge>
    <edge id=":V0027_3" function="internal">
        <lane id=":V0027_3_0" index="0" speed="15.50" length="21.10" shape="450.61,135.80 444.71,133.61 440.86,131.37 437.11,129.17 431.48,127.06"/>
        <lane id=":V0027_3_1" index="1" speed="15.50" length="21.10" shape="451.48,132.72 445.58,130.53 441.73,128.30 437.98,126.09 432.35,123.98"/>
    </edge>
    <edge id=":V0027_5" function="internal">
        <lane id=":V0027_5_0" index="0" speed="13.34" length="18.23" shape="452.35,129.64 447.45,127.85 443.43,125.52 440.29,122.64 438.03,119.21"/>
    </edge>
    <edge id=":V0028_0" function="internal">
        <lane id=":V0028_0_0" index="0" speed="8.54" length="10.55" shape="546.88,601.33 545.88,599.12 544.23,597.36 541.94,596.05 539.00,595.19"/>
    </edge>
    <edge id=":V0028_1" function="internal">
        <lane id=":V0028_1_0" index="0" speed="22.00" length="13.70" shape="546.88,601.33 543.22,588.13"/>
    </edge>
    <edge id=":V0028_2" function="internal">
        <lane id=":V0028_2_0" index="0" speed="12.50" length="11.72" shape="550.50,597.42 539.00,595.19"/>
        <lane id=":V0028_2_1" index="1" speed="12.50" length="11.72" shape="551.11,594.27 539.60,592.05"/>
    </edge>
    <edge id=":V0028_4" function="internal">
        <lane id=":V0028_4_0" index="0" speed="8.54" length="10.55" shape="551.11,594.27 548.16,593.42 545.87,592.11 544.22,590.35 543.22,588.13"/>
    </edge>
    <edge id=":V0029_0" function="internal">
        <lane id=":V0029_0_0" index="0" speed="10.00" length="15.60" shape="377.17,499.16 374.38,497.14 370.82,496.09 366.90,494.57 363.05,491.15"/>