<nodes><node id="V0001" x="1048.6" y="696.6666666666666" type="priority" /><node id="V0002" x="171.262" y="723.8199999999999" type="priority" /><node id="V0003" x="356.3586666666667" y="562.6146666666666" type="priority" /><node id="V0004" x="654.9026666666667" y="809.7933333333333" type="priority" /><node id="V0005" x="721.8333333333334" y="603.664" type="priority" /><node id="V0006" x="833.9466666666667" y="238.842" type="priority" /><node id="V0007" x="53.452133333333336" y="18.0344" type="priority" /><node id="V0008" x="435.03933333333333" y="18.425066666666666" type="priority" /><node id="V0009" x="975.4866666666666" y="407.8573333333333" type="priority" /><node id="V0010" x="818.0933333333334" y="22.201199999999996" type="priority" /><node id="V0011" x="579.9866666666666" y="711.1666666666666" type="priority" /><node id="V0012" x="785.7333333333333" y="645.7633333333334" type="priority" /><node id="V0013" x="593.6346666666667" y="589.2653333333333" type="priority" /><node id="V0014" x="804.2533333333333" y="335.4626666666666" type="priority" /><node id="V0015" x="615.5933333333334" y="386.87" type="priority" /><node id="V0016" x="936.2533333333333" y="457.0473333333333" type="priority" /><node id="V0017" x="537.3786666666667" y="712.4866666666666" type="priority" /><node id="V0018" x="467.47266666666667" y="135.16400000000002" type="priority" /><node id="V0019" x="737.4466666666667" y="706.3" type="priority" /><node id="V0020" x="486.24533333333335" y="587.7673333333333" type="priority" /><node id="V0021" x="477.4713333333333" y="576.2180000000001" type="priority" /><node id="V0022" x="627.098" y="709.7133333333334" type="priority" /><node id="V0023" x="534.5166666666667" y="221.422" type="priority" /><node id="V0024" x="897.7866666666666" y="375.0073333333333" type="priority" /><node id="V0025" x="549.7966666666667" y="431.476" type="priority" /><node id="V0026" x="734.76" y="306.0826666666666" type="priority" /><node id="V0027" x="496.23400000000004" y="143.30066666666667" type="priority" /><node id="V0028" x="599.3013333333333" y="609.6613333333333" type="priority" /><node id="V0029" x="429.48066666666665" y="513.0426666666667" type="priority" /><node id="V0030" x="485.704" y="200.78466666666665" type="priority" /></nodes>