<?xml version="1.0" encoding="UTF-8"?>

<!-- generated on 2023-06-26 02:05:33 by Eclipse SUMO netconvert Version 1.16.0
<configuration xmlns:xsi="http://www.w3.org/2001/XMLSchema-instance" xsi:noNamespaceSchemaLocation="http://sumo.dlr.de/xsd/netconvertConfiguration.xsd">

    <input>
        <node-files value="data/simulationConfigurations/tests/6\6.nod.xml"/>
        <edge-files value="data/simulationConfigurations/tests/6\6.edg.xml"/>
    </input>

    <output>
        <output-file value="data/simulationConfigurations/tests/6\6.net.xml"/>
    </output>

</configuration>
-->

<net version="1.16" junctionCornerDetail="5" limitTurnSpeed="5.50" xmlns:xsi="http://www.w3.org/2001/XMLSchema-instance" xsi:noNamespaceSchemaLocation="http://sumo.dlr.de/xsd/net_file.xsd">

    <location netOffset="-195.32,-15.43" convBoundary="0.00,0.00,775.28,1025.94" origBoundary="195.32,15.43,970.60,1041.37" projParameter="!"/>

    <edge id=":V0002_0" function="internal">
        <lane id=":V0002_0_0" index="0" speed="8.18" length="28.80" shape="610.43,159.70 614.43,169.20 617.30,172.11 619.04,168.41 619.65,158.12"/>
        <lane id=":V0002_0_1" index="1" speed="4.85" length="8.79" shape="613.63,159.15 614.85,162.05 615.73,162.94 616.26,161.81 616.45,158.66"/>
    </edge>
    <edge id=":V0002_2" function="internal">
        <lane id=":V0002_2_0" index="0" speed="6.54" length="8.41" shape="613.63,159.15 612.53,156.88 611.12,155.42 609.41,154.75 607.39,154.88"/>
    </edge>
    <edge id=":V0002_3" function="internal">
        <lane id=":V0002_3_0" index="0" speed="10.10" length="21.22" shape="605.12,143.30 610.09,144.76 613.63,147.80 615.75,152.44 616.45,158.66"/>
        <lane id=":V0002_3_1" index="1" speed="9.08" length="16.97" shape="604.74,146.47 608.48,147.65 611.14,150.16 612.73,154.02 613.24,159.21"/>
    </edge>
    <edge id=":V0002_5" function="internal">
        <lane id=":V0002_5_0" index="0" speed="6.31" length="16.26" shape="604.74,146.47 610.85,147.51 613.21,148.73 611.80,150.15 606.64,151.77"/>
    </edge>
    <edge id=":V0003_0" function="internal">
        <lane id=":V0003_0_0" index="0" speed="10.50" length="88.38" shape="617.31,953.69 615.98,983.00 611.16,1007.92 601.38,1021.22 585.17,1015.66"/>
    </edge>
    <edge id=":V0003_1" function="internal">
        <lane id=":V0003_1_0" index="0" speed="13.41" length="70.68" shape="614.11,953.68 612.37,976.75 607.26,996.72 598.74,1006.69 586.78,999.78"/>
    </edge>
    <edge id=":V0003_2" function="internal">
        <lane id=":V0003_2_0" index="0" speed="10.00" length="82.04" shape="607.17,953.92 609.77,980.95 608.86,1005.11 602.15,1018.52 587.32,1013.30"/>
    </edge>
    <edge id=":V0003_3" function="internal">
        <lane id=":V0003_3_0" index="0" speed="12.44" length="64.51" shape="604.00,954.36 605.20,975.73 602.99,995.09 596.97,1005.44 586.78,999.78"/>
    </edge>
    <edge id=":V0003_4" function="internal">
        <lane id=":V0003_4_0" index="0" speed="8.00" length="35.20" shape="599.37,990.31 601.37,1000.84 599.51,1010.35 594.57,1015.58 587.32,1013.30"/>
        <lane id=":V0003_4_1" index="1" speed="8.00" length="27.00" shape="596.73,992.29 598.59,1000.56 597.86,1008.20 594.75,1012.54 589.48,1010.93"/>
    </edge>
    <edge id=":V0003_6" function="internal">
        <lane id=":V0003_6_0" index="0" speed="6.53" length="18.19" shape="596.73,992.29 597.05,997.89 595.50,1001.01 592.08,1001.64 586.78,999.78"/>
    </edge>
    <edge id=":V0003_7" function="internal">
        <lane id=":V0003_7_0" index="0" speed="2.68" length="1.31" shape="589.24,1011.19 589.70,1011.38 589.89,1011.40 589.81,1011.25 589.48,1010.93"/>
    </edge>
    <edge id=":V0003_8" function="internal">
        <lane id=":V0003_8_0" index="0" speed="7.98" length="26.03" shape="586.99,1013.66 593.25,1015.78 595.30,1014.17 593.15,1008.84 586.78,999.78"/>
    </edge>
    <edge id=":V0004_0" function="internal">
        <lane id=":V0004_0_0" index="0" speed="4.32" length="6.97" shape="78.08,349.11 76.45,347.15 75.73,346.62 75.91,347.53 77.00,349.88"/>
    </edge>
    <edge id=":V0004_1" function="internal">
        <lane id=":V0004_1_0" index="0" speed="9.92" length="41.04" shape="78.08,349.11 65.71,333.68 57.15,324.16 52.40,320.56 51.46,322.89"/>
    </edge>
    <edge id=":V0004_2" function="internal">
        <lane id=":V0004_2_0" index="0" speed="12.98" length="63.78" shape="80.69,347.26 62.10,324.10 48.68,309.25 40.43,302.69 37.36,304.44"/>
    </edge>
    <edge id=":V0004_3" function="internal">
        <lane id=":V0004_3_0" index="0" speed="15.50" length="81.79" shape="80.69,347.26 71.06,333.85 55.23,311.16 40.52,289.69 34.25,279.93"/>
    </edge>
    <edge id=":V0004_4" function="internal">
        <lane id=":V0004_4_0" index="0" speed="18.50" length="0.84" shape="80.69,347.26 80.68,347.00 80.75,346.85 80.91,346.83 81.16,346.92"/>
    </edge>
    <edge id=":V0004_5" function="internal">
        <lane id=":V0004_5_0" index="0" speed="12.50" length="68.24" shape="49.32,287.10 49.15,291.28 54.83,302.34 66.37,320.27 83.76,345.07"/>
        <lane id=":V0004_5_1" index="1" speed="12.50" length="69.62" shape="49.32,287.10 47.73,291.70 52.50,303.21 63.65,321.62 81.16,346.92"/>
    </edge>
    <edge id=":V0004_7" function="internal">
        <lane id=":V0004_7_0" index="0" speed="15.99" length="70.25" shape="49.32,287.10 48.37,291.75 52.22,304.07 60.89,324.08 74.36,351.75"/>
        <lane id=":V0004_7_1" index="1" speed="16.19" length="72.05" shape="49.32,287.10 47.00,292.16 49.97,304.93 58.21,325.42 71.73,353.63"/>
    </edge>
    <edge id=":V0004_9" function="internal">
        <lane id=":V0004_9_0" index="0" speed="13.06" length="37.75" shape="49.32,287.10 46.52,290.03 45.42,297.07 46.02,308.21 48.31,323.46"/>
        <lane id=":V0004_9_1" index="1" speed="13.33" length="39.39" shape="49.32,287.10 45.16,290.35 43.08,297.59 43.08,308.82 45.16,324.03"/>
    </edge>
    <edge id=":V0004_11" function="internal">
        <lane id=":V0004_11_0" index="0" speed="10.00" length="22.61" shape="49.32,287.10 44.54,289.16 40.96,292.73 38.56,297.83 37.36,304.44"/>
    </edge>
    <edge id=":V0004_12" function="internal">
        <lane id=":V0004_12_0" index="0" speed="6.42" length="15.59" shape="49.32,287.10 44.99,287.24 40.04,286.26 36.53,284.48 36.52,282.20"/>
        <lane id=":V0004_12_1" index="1" speed="5.77" length="12.27" shape="49.32,287.10 45.83,287.40 41.77,287.06 38.85,286.07 38.78,284.46"/>
    </edge>
    <edge id=":V0005_0" function="internal">
        <lane id=":V0005_0_0" index="0" speed="3.85" length="5.00" shape="161.35,965.00 160.94,963.17 160.61,962.54 160.34,963.11 160.14,964.88"/>
    </edge>
    <edge id=":V0005_1" function="internal">
        <lane id=":V0005_1_0" index="0" speed="6.64" length="17.75" shape="161.35,965.00 160.59,969.58 157.37,972.33 153.15,972.64 149.40,969.91"/>
        <lane id=":V0005_1_1" index="1" speed="5.87" length="13.47" shape="161.35,965.00 160.74,968.38 158.21,970.25 154.93,970.28 152.04,968.11"/>
        <lane id=":V0005_1_2" index="2" speed="6.57" length="17.37" shape="161.35,965.00 161.96,970.74 161.05,972.88 158.63,971.40 154.69,966.31"/>
    </edge>
    <edge id=":V0006_0" function="internal">
        <lane id=":V0006_0_0" index="0" speed="9.32" length="15.87" shape="-4.36,744.26 -4.98,739.74 -0.67,736.60 5.10,735.05"/>
    </edge>
    <edge id=":V0006_1" function="internal">
        <lane id=":V0006_1_0" index="0" speed="7.71" length="15.66" shape="-1.71,742.46 -2.60,737.84 1.48,735.86 7.89,736.17"/>
        <lane id=":V0006_1_1" index="1" speed="6.71" length="17.35" shape="0.93,740.66 0.32,737.78 3.48,737.57 8.64,739.08 14.05,741.36"/>
    </edge>
    <edge id=":V0006_5" function="internal">
        <lane id=":V0006_5_0" index="0" speed="9.32" length="11.37" shape="5.10,735.05 6.96,734.56 16.33,733.34"/>
    </edge>
    <edge id=":V0006_6" function="internal">
        <lane id=":V0006_6_0" index="0" speed="7.71" length="7.89" shape="7.89,736.17 8.25,736.18 15.42,738.46"/>
    </edge>
    <edge id=":V0006_3" function="internal">
        <lane id=":V0006_3_0" index="0" speed="8.10" length="16.49" shape="2.24,728.80 2.94,731.29 5.52,732.88 9.98,733.56 16.33,733.34"/>
    </edge>
    <edge id=":V0006_4" function="internal">
        <lane id=":V0006_4_0" index="0" speed="7.50" length="16.77" shape="2.24,728.80 2.96,730.63 5.40,732.85 9.55,735.46 15.42,738.46"/>
    </edge>
    <edge id=":V0007_0" function="internal">
        <lane id=":V0007_0_0" index="0" speed="8.50" length="34.94" shape="248.96,722.06 249.31,719.72 249.27,711.72 248.82,698.08 248.34,687.16"/>
    </edge>
    <edge id=":V0007_3" function="internal">
        <lane id=":V0007_3_0" index="0" speed="8.50" length="8.39" shape="248.34,687.16 247.98,678.78"/>
    </edge>
    <edge id=":V0007_1" function="internal">
        <lane id=":V0007_1_0" index="0" speed="5.68" length="12.48" shape="243.34,680.00 245.57,683.78 247.09,684.83 247.89,683.17 247.98,678.78"/>
    </edge>
    <edge id=":V0007_2" function="internal">
        <lane id=":V0007_2_0" index="0" speed="8.00" length="38.11" shape="233.58,710.20 240.41,707.69 245.09,701.62 247.61,691.98 247.98,678.78"/>
    </edge>
    <edge id=":V0008_0" function="internal">
        <lane id=":V0008_0_0" index="0" speed="8.50" length="89.35" shape="218.47,188.93 217.33,154.80 217.83,126.96 220.68,108.42 226.59,102.17"/>
    </edge>
    <edge id=":V0008_1" function="internal">
        <lane id=":V0008_1_0" index="0" speed="11.63" length="60.22" shape="221.66,188.78 239.34,131.21"/>
        <lane id=":V0008_1_1" index="1" speed="12.00" length="75.66" shape="224.86,188.63 224.30,162.29 225.44,137.59 229.18,124.36 236.39,132.45"/>
    </edge>
    <edge id=":V0008_3" function="internal">
        <lane id=":V0008_3_0" index="0" speed="5.65" length="12.25" shape="246.26,127.18 242.89,124.52 241.11,124.09 240.91,125.91 242.29,129.98"/>
    </edge>
    <edge id=":V0008_4" function="internal">
        <lane id=":V0008_4_0" index="0" speed="9.10" length="32.21" shape="246.26,127.18 239.89,120.69 232.56,112.27 227.17,105.05 226.59,102.17"/>
    </edge>
    <edge id=":V0008_5" function="internal">
        <lane id=":V0008_5_0" index="0" speed="7.00" length="16.55" shape="210.50,103.90 212.72,102.58 216.15,101.85 220.77,101.71 226.59,102.17"/>
    </edge>
    <edge id=":V0008_6" function="internal">
        <lane id=":V0008_6_0" index="0" speed="10.50" length="37.77" shape="212.76,106.17 218.18,107.18 226.32,114.07 234.32,123.26 239.34,131.21"/>
        <lane id=":V0008_6_1" index="1" speed="10.50" length="33.09" shape="215.02,108.43 219.27,109.64 225.66,116.13 232.07,124.78 236.39,132.45"/>
    </edge>
    <edge id=":V0008_8" function="internal">
        <lane id=":V0008_8_0" index="0" speed="6.00" length="88.00" shape="214.80,188.88 217.85,150.70 220.83,123.52 223.74,107.34 226.59,102.17"/>
    </edge>
    <edge id=":V0008_9" function="internal">
        <lane id=":V0008_9_0" index="0" speed="9.50" length="82.76" shape="214.80,188.88 217.78,160.71 222.94,134.98 230.17,121.79 239.34,131.21"/>
    </edge>
    <edge id=":V0010_0" function="internal">
        <lane id=":V0010_0_0" index="0" speed="8.31" length="29.92" shape="462.33,2.41 467.71,11.72 470.99,14.36 472.18,10.32 471.28,-0.40"/>
        <lane id=":V0010_0_1" index="1" speed="4.93" length="9.22" shape="465.42,1.44 467.08,4.31 468.09,5.12 468.46,3.88 468.18,0.58"/>
    </edge>
    <edge id=":V0011_0" function="internal">
        <lane id=":V0011_0_0" index="0" speed="5.77" length="12.62" shape="618.35,309.38 615.94,305.29 614.21,303.90 613.16,305.18 612.80,309.16"/>
    </edge>
    <edge id=":V0011_1" function="internal">
        <lane id=":V0011_1_0" index="0" speed="9.50" length="29.07" shape="621.21,307.93 608.04,282.02"/>
    </edge>
    <edge id=":V0011_2" function="internal">
        <lane id=":V0011_2_0" index="0" speed="13.00" length="29.14" shape="619.29,280.88 618.26,290.72 616.03,298.59 613.82,304.67 612.80,309.16"/>
    </edge>
    <edge id=":V0011_3" function="internal">
        <lane id=":V0011_3_0" index="0" speed="5.59" length="4.42" shape="612.89,280.86 612.57,284.93 612.40,285.22"/>
    </edge>
    <edge id=":V0011_4" function="internal">
        <lane id=":V0011_4_0" index="0" speed="5.59" length="7.32" shape="612.40,285.22 611.66,286.47 610.15,285.50 608.04,282.02"/>
    </edge>
    <edge id=":V0012_0" function="internal">
        <lane id=":V0012_0_0" index="0" speed="7.50" length="18.96" shape="216.97,249.68 210.83,250.66 205.91,250.72 201.81,250.58 198.10,250.97"/>
    </edge>
    <edge id=":V0012_1" function="internal">
        <lane id=":V0012_1_0" index="0" speed="5.85" length="8.76" shape="216.21,246.57 213.80,246.78 212.14,246.04 211.24,244.36 211.08,241.75"/>
    </edge>
    <edge id=":V0012_2" function="internal">
        <lane id=":V0012_2_0" index="0" speed="6.01" length="9.31" shape="203.66,255.98 203.48,253.24 202.50,251.49 200.70,250.73 198.10,250.97"/>
    </edge>
    <edge id=":V0012_3" function="internal">
        <lane id=":V0012_3_0" index="0" speed="8.00" length="14.72" shape="210.04,256.43 211.08,241.75"/>
    </edge>
    <edge id=":V0013_0" function="internal">
        <lane id=":V0013_0_0" index="0" speed="6.52" length="8.47" shape="122.58,715.25 123.30,717.43 124.54,718.92 126.31,719.72 128.60,719.83"/>
        <lane id=":V0013_0_1" index="1" speed="8.02" length="13.31" shape="119.43,715.82 120.56,719.24 122.52,721.58 125.29,722.84 128.89,723.01"/>
    </edge>
    <edge id=":V0013_2" function="internal">
        <lane id=":V0013_2_0" index="0" speed="17.00" length="13.72" shape="116.28,716.39 117.50,720.29 119.06,722.73 120.62,725.18 121.84,729.07"/>
        <lane id=":V0013_2_1" index="1" speed="17.00" length="13.72" shape="116.28,716.39 118.69,729.64"/>
    </edge>
    <edge id=":V0013_4" function="internal">
        <lane id=":V0013_4_0" index="0" speed="16.00" length="16.87" shape="112.28,724.54 115.74,723.72 119.14,722.30 123.19,720.83 128.60,719.83"/>
        <lane id=":V0013_4_1" index="1" speed="16.00" length="16.87" shape="112.28,724.54 128.89,723.01"/>
    </edge>
    <edge id=":V0013_6" function="internal">
        <lane id=":V0013_6_0" index="0" speed="6.76" length="9.17" shape="112.28,724.54 114.70,724.67 116.58,725.57 117.91,727.22 118.69,729.64"/>
    </edge>
    <edge id=":V0014_0" function="internal">
        <lane id=":V0014_0_0" index="0" speed="5.51" length="11.08" shape="183.53,561.30 185.51,564.53 187.02,565.43 188.06,564.01 188.64,560.28"/>
    </edge>
    <edge id=":V0014_1" function="internal">
        <lane id=":V0014_1_0" index="0" speed="15.50" length="30.52" shape="180.68,562.74 185.16,570.52 188.94,575.59 192.72,580.65 197.20,588.43"/>
        <lane id=":V0014_1_1" index="1" speed="15.50" length="30.52" shape="177.82,564.18 182.30,571.96 186.08,577.03 189.86,582.09 194.34,589.87"/>
        <lane id=":V0014_1_2" index="2" speed="15.50" length="30.52" shape="177.82,564.18 191.49,591.31"/>
    </edge>
    <edge id=":V0014_4" function="internal">
        <lane id=":V0014_4_0" index="0" speed="19.50" length="32.31" shape="183.19,592.11 184.29,583.63 186.05,574.32 187.74,565.95 188.64,560.28"/>
    </edge>
    <edge id=":V0014_5" function="internal">
        <lane id=":V0014_5_0" index="0" speed="6.77" length="4.66" shape="186.38,592.34 187.07,587.73"/>
        <lane id=":V0014_5_1" index="1" speed="5.51" length="4.25" shape="186.38,592.34 186.96,588.60 187.24,588.22"/>
    </edge>
    <edge id=":V0014_7" function="internal">
        <lane id=":V0014_7_0" index="0" speed="6.77" length="12.99" shape="187.07,587.73 187.30,586.17 188.94,583.71 191.28,584.94 194.34,589.87"/>
    </edge>
    <edge id=":V0014_8" function="internal">
        <lane id=":V0014_8_0" index="0" speed="5.51" length="6.82" shape="187.24,588.22 188.00,587.18 189.51,588.09 191.49,591.31"/>
    </edge>
    <edge id=":V0015_0" function="internal">
        <lane id=":V0015_0_0" index="0" speed="4.88" length="7.72" shape="182.33,482.01 184.49,484.91 186.05,486.78 187.00,487.61 187.36,487.40"/>
        <lane id=":V0015_0_1" index="1" speed="6.89" length="17.11" shape="179.74,483.88 184.20,489.37 187.48,491.82 189.60,491.24 190.55,487.63"/>
    </edge>
    <edge id=":V0015_2" function="internal">
        <lane id=":V0015_2_0" index="0" speed="15.00" length="31.03" shape="179.74,483.88 184.58,488.90 190.20,492.94 196.37,497.75 202.86,505.05"/>
        <lane id=":V0015_2_1" index="1" speed="15.00" length="31.03" shape="179.74,483.88 184.18,489.19 188.91,493.88 194.18,499.33 200.27,506.92"/>
        <lane id=":V0015_2_2" index="2" speed="15.00" length="31.03" shape="179.74,483.88 197.67,508.79"/>
    </edge>
    <edge id=":V0015_5" function="internal">
        <lane id=":V0015_5_0" index="0" speed="25.00" length="22.69" shape="192.16,510.36 191.94,506.30 191.18,501.38 190.51,495.27 190.55,487.63"/>
        <lane id=":V0015_5_1" index="1" speed="25.00" length="22.69" shape="192.16,510.36 193.74,487.85"/>
    </edge>
    <edge id=":V0015_7" function="internal">
        <lane id=":V0015_7_0" index="0" speed="6.57" length="4.45" shape="192.16,510.36 192.88,505.96"/>
        <lane id=":V0015_7_1" index="1" speed="5.46" length="4.15" shape="192.16,510.36 192.72,507.11 193.26,506.45"/>
    </edge>
    <edge id=":V0015_9" function="internal">
        <lane id=":V0015_9_0" index="0" speed="6.57" length="10.93" shape="192.88,505.96 193.02,505.12 194.65,502.80 197.07,503.40 200.27,506.92"/>
    </edge>
    <edge id=":V0015_10" function="internal">
        <lane id=":V0015_10_0" index="0" speed="5.46" length="5.93" shape="193.26,506.45 193.83,505.76 195.48,506.33 197.67,508.79"/>
    </edge>
    <edge id=":V0016_0" function="internal">
        <lane id=":V0016_0_0" index="0" speed="10.50" length="12.75" shape="242.47,562.00 242.12,558.62 241.37,555.74 240.08,553.06 238.14,550.27"/>
    </edge>
    <edge id=":V0016_1" function="internal">
        <lane id=":V0016_1_0" index="0" speed="10.00" length="13.12" shape="242.47,562.00 241.85,548.90"/>
    </edge>
    <edge id=":V0016_2" function="internal">
        <lane id=":V0016_2_0" index="0" speed="18.50" length="13.12" shape="246.18,560.63 238.14,550.27"/>
    </edge>
    <edge id=":V0016_3" function="internal">
        <lane id=":V0016_3_0" index="0" speed="14.29" length="12.75" shape="246.18,560.63 244.24,557.83 242.96,555.16 242.20,552.28 241.85,548.90"/>
    </edge>
    <edge id=":V0017_0" function="internal">
        <lane id=":V0017_0_0" index="0" speed="7.13" length="8.91" shape="488.77,125.45 489.40,127.37 490.70,128.84 492.68,129.86 495.32,130.43"/>
        <lane id=":V0017_0_1" index="1" speed="8.55" length="13.16" shape="485.60,125.89 486.53,128.90 488.40,131.19 491.21,132.76 494.95,133.61"/>
    </edge>
    <edge id=":V0017_2" function="internal">
        <lane id=":V0017_2_0" index="0" speed="17.00" length="13.06" shape="485.60,125.89 486.63,129.64 488.07,132.00 489.50,134.37 490.53,138.12"/>
        <lane id=":V0017_2_1" index="1" speed="17.00" length="13.06" shape="485.60,125.89 487.36,138.56"/>
    </edge>
    <edge id=":V0017_4" function="internal">
        <lane id=":V0017_4_0" index="0" speed="15.50" length="13.86" shape="481.41,132.02 484.70,131.91 487.62,131.14 490.91,130.42 495.32,130.43"/>
        <lane id=":V0017_4_1" index="1" speed="15.50" length="13.86" shape="481.41,132.02 494.95,133.61"/>
    </edge>
    <edge id=":V0017_6" function="internal">
        <lane id=":V0017_6_0" index="0" speed="7.38" length="9.60" shape="481.41,132.02 483.70,132.66 485.46,133.96 486.68,135.93 487.36,138.56"/>
    </edge>
    <edge id=":V0018_0" function="internal">
        <lane id=":V0018_0_0" index="0" speed="5.50" length="9.60" shape="624.35,476.37 621.89,474.60 620.13,474.43 619.07,475.84 618.71,478.85"/>
        <lane id=":V0018_0_1" index="1" speed="7.40" length="18.71" shape="626.51,474.01 621.71,470.56 618.28,470.22 616.21,472.98 615.51,478.84"/>
    </edge>
    <edge id=":V0018_2" function="internal">
        <lane id=":V0018_2_0" index="0" speed="12.00" length="27.15" shape="626.51,474.01 621.06,470.39 615.51,468.30 609.43,465.74 602.42,460.70"/>
        <lane id=":V0018_2_1" index="1" speed="12.00" length="27.15" shape="626.51,474.01 621.36,469.99 616.51,467.05 611.17,463.67 604.58,458.34"/>
        <lane id=":V0018_2_2" index="2" speed="12.00" length="27.15" shape="626.51,474.01 606.73,455.97"/>
    </edge>
    <edge id=":V0018_5" function="internal">
        <lane id=":V0018_5_0" index="0" speed="13.00" length="25.74" shape="612.38,453.49 613.37,457.72 615.55,463.14 617.73,470.08 618.71,478.85"/>
        <lane id=":V0018_5_1" index="1" speed="13.00" length="25.74" shape="612.38,453.49 612.87,457.76 613.95,463.25 615.03,470.20 615.51,478.84"/>
        <lane id=":V0018_5_2" index="2" speed="13.00" length="25.74" shape="612.38,453.49 612.31,478.83"/>
    </edge>
    <edge id=":V0018_8" function="internal">
        <lane id=":V0018_8_0" index="0" speed="6.52" length="14.18" shape="612.38,453.49 611.88,458.27 610.41,460.67 607.98,460.69 604.58,458.34"/>
        <lane id=":V0018_8_1" index="1" speed="5.50" length="9.60" shape="612.38,453.49 612.02,456.50 610.96,457.91 609.20,457.74 606.73,455.97"/>
    </edge>
    <edge id=":V0019_0" function="internal">
        <lane id=":V0019_0_0" index="0" speed="9.31" length="10.26" shape="132.40,787.34 133.18,790.65 134.19,793.23 135.44,795.08 136.92,796.21"/>
    </edge>
    <edge id=":V0019_1" function="internal">
        <lane id=":V0019_1_0" index="0" speed="15.50" length="14.28" shape="129.25,787.91 131.80,801.97"/>
    </edge>
    <edge id=":V0019_2" function="internal">
        <lane id=":V0019_2_0" index="0" speed="6.50" length="12.64" shape="125.50,790.78 136.92,796.21"/>
        <lane id=":V0019_2_1" index="1" speed="6.50" length="12.64" shape="124.13,793.67 135.54,799.10"/>
    </edge>
    <edge id=":V0019_4" function="internal">
        <lane id=":V0019_4_0" index="0" speed="9.92" length="11.72" shape="124.13,793.67 127.14,795.39 129.42,797.35 130.97,799.54 131.80,801.97"/>
    </edge>
    <edge id=":V0020_0" function="internal">
        <lane id=":V0020_0_0" index="0" speed="6.82" length="11.25" shape="289.45,228.79 285.93,230.01 283.74,231.66 282.88,233.74 283.35,236.24"/>
    </edge>
    <edge id=":V0020_1" function="internal">
        <lane id=":V0020_1_0" index="0" speed="15.50" length="17.72" shape="289.45,228.79 272.22,232.97"/>
    </edge>
    <edge id=":V0020_2" function="internal">
        <lane id=":V0020_2_0" index="0" speed="10.50" length="12.81" shape="281.57,223.69 282.53,227.29 282.46,229.96 282.39,232.63 283.35,236.24"/>
        <lane id=":V0020_2_1" index="1" speed="10.50" length="12.81" shape="278.61,224.93 279.58,228.53 279.51,231.20 279.43,233.87 280.40,237.47"/>
    </edge>
    <edge id=":V0020_4" function="internal">
        <lane id=":V0020_4_0" index="0" speed="6.19" length="9.05" shape="275.66,226.16 276.30,228.62 275.94,230.57 274.58,232.02 272.22,232.97"/>
    </edge>
    <edge id=":V0021_0" function="internal">
        <lane id=":V0021_0_0" index="0" speed="10.00" length="20.09" shape="538.15,144.53 535.98,141.35 533.06,138.04 529.72,133.89 526.27,128.20"/>
        <lane id=":V0021_0_1" index="1" speed="10.00" length="20.09" shape="538.15,144.53 529.12,126.75"/>
    </edge>
    <edge id=":V0021_2" function="internal">
        <lane id=":V0021_2_0" index="0" speed="5.61" length="9.32" shape="538.15,144.53 537.20,141.86 537.51,140.06 539.09,139.15 541.93,139.11"/>
    </edge>
    <edge id=":V0021_3" function="internal">
        <lane id=":V0021_3_0" index="0" speed="5.61" length="9.32" shape="522.49,133.62 525.33,133.58 526.90,132.67 527.22,130.87 526.27,128.20"/>
        <lane id=":V0021_3_1" index="1" speed="7.38" length="17.28" shape="522.12,136.79 527.38,136.73 530.30,135.04 530.88,131.71 529.12,126.75"/>
    </edge>
    <edge id=":V0021_5" function="internal">
        <lane id=":V0021_5_0" index="0" speed="17.50" length="20.11" shape="522.12,136.79 528.07,136.99 532.21,136.36 536.35,135.74 542.30,135.94"/>
        <lane id=":V0021_5_1" index="1" speed="17.50" length="20.11" shape="522.12,136.79 541.93,139.11"/>
    </edge>
    <edge id=":V0022_0" function="internal">
        <lane id=":V0022_0_0" index="0" speed="8.05" length="12.59" shape="165.48,716.45 169.45,715.72 172.34,714.38 174.15,712.42 174.90,709.83"/>
        <lane id=":V0022_0_1" index="1" speed="9.30" length="17.14" shape="165.77,719.63 170.93,718.63 174.71,716.70 177.09,713.84 178.09,710.06"/>
    </edge>
    <edge id=":V0022_2" function="internal">
        <lane id=":V0022_2_0" index="0" speed="9.00" length="17.76" shape="165.77,719.63 170.96,718.66 174.37,717.24 177.79,715.82 182.98,714.84"/>
        <lane id=":V0022_2_1" index="1" speed="9.00" length="17.76" shape="165.77,719.63 183.27,718.03"/>
    </edge>
    <edge id=":V0022_4" function="internal">
        <lane id=":V0022_4_0" index="0" speed="9.00" length="15.30" shape="170.66,724.42 171.47,720.01 172.78,717.13 174.08,714.24 174.90,709.83"/>
        <lane id=":V0022_4_1" index="1" speed="9.00" length="15.30" shape="173.85,724.65 174.66,720.24 175.97,717.35 177.28,714.47 178.09,710.06"/>
    </edge>
    <edge id=":V0022_6" function="internal">
        <lane id=":V0022_6_0" index="0" speed="5.50" length="10.21" shape="177.04,724.87 177.60,722.08 178.82,720.01 180.71,718.66 183.27,718.03"/>
    </edge>
    <edge id=":V0023_0" function="internal">
        <lane id=":V0023_0_0" index="0" speed="16.50" length="24.21" shape="198.78,499.52 195.65,496.30 191.29,492.47 186.35,487.90 181.49,482.45"/>
        <lane id=":V0023_0_1" index="1" speed="16.50" length="24.21" shape="198.78,499.52 184.02,480.49"/>
    </edge>
    <edge id=":V0023_2" function="internal">
        <lane id=":V0023_2_0" index="0" speed="10.00" length="23.80" shape="198.78,499.52 195.68,496.31 191.90,492.22 188.85,486.74 187.93,479.31"/>
    </edge>
    <edge id=":V0023_3" function="internal">
        <lane id=":V0023_3_0" index="0" speed="10.00" length="8.14" shape="187.37,487.21 186.89,485.29 185.40,484.53 183.43,483.92 181.49,482.45"/>
        <lane id=":V0023_3_1" index="1" speed="11.11" length="10.14" shape="190.56,487.43 190.09,484.87 188.51,483.59 186.32,482.50 184.02,480.49"/>
    </edge>
    <edge id=":V0023_5" function="internal">
        <lane id=":V0023_5_0" index="0" speed="16.50" length="8.33" shape="193.75,487.66 193.43,485.19 192.44,483.59 191.45,482.00 191.12,479.53"/>
        <lane id=":V0023_5_1" index="1" speed="16.50" length="8.33" shape="193.75,487.66 194.31,479.75"/>
    </edge>
    <edge id=":V0024_0" function="internal">
        <lane id=":V0024_0_0" index="0" speed="7.22" length="13.01" shape="227.90,253.03 227.12,250.59 225.07,249.21 221.75,248.89 217.16,249.63"/>
    </edge>
    <edge id=":V0024_1" function="internal">
        <lane id=":V0024_1_0" index="0" speed="11.00" length="15.80" shape="227.90,253.03 226.74,249.76 224.40,246.82 222.03,243.28 220.79,238.21"/>
        <lane id=":V0024_1_1" index="1" speed="11.00" length="15.80" shape="227.90,253.03 227.24,249.67 225.99,246.57 224.72,242.95 223.99,238.06"/>
        <lane id=":V0024_1_2" index="2" speed="11.00" length="15.80" shape="227.90,253.03 227.18,237.91"/>
    </edge>
    <edge id=":V0024_4" function="internal">
        <lane id=":V0024_4_0" index="0" speed="10.50" length="17.32" shape="233.23,242.44 216.40,246.52"/>
    </edge>
    <edge id=":V0024_5" function="internal">
        <lane id=":V0024_5_0" index="0" speed="6.98" length="12.10" shape="233.23,242.44 229.30,242.98 226.45,242.43 224.68,240.79 223.99,238.06"/>
        <lane id=":V0024_5_1" index="1" speed="6.13" length="9.06" shape="233.23,242.44 230.69,242.68 228.84,242.00 227.67,240.41 227.18,237.91"/>
    </edge>
    <edge id=":V0025_0" function="internal">
        <lane id=":V0025_0_0" index="0" speed="5.46" length="10.08" shape="535.56,399.72 532.91,397.76 531.18,397.55 530.38,399.09 530.50,402.39"/>
        <lane id=":V0025_0_1" index="1" speed="7.51" length="20.68" shape="537.72,397.36 532.28,393.33 528.73,392.90 527.08,396.07 527.33,402.83"/>
    </edge>
    <edge id=":V0025_2" function="internal">
        <lane id=":V0025_2_0" index="0" speed="11.00" length="34.66" shape="539.88,394.99 531.91,388.40 524.64,383.26 518.06,378.75 512.17,374.06"/>
        <lane id=":V0025_2_1" index="1" speed="11.00" length="34.66" shape="539.88,394.99 514.33,371.69"/>
    </edge>
    <edge id=":V0025_4" function="internal">
        <lane id=":V0025_4_0" index="0" speed="18.50" length="34.58" shape="522.56,368.58 527.33,402.83"/>
        <lane id=":V0025_4_1" index="1" speed="18.50" length="34.58" shape="519.40,369.02 524.16,403.27"/>
    </edge>
    <edge id=":V0025_6" function="internal">
        <lane id=":V0025_6_0" index="0" speed="5.46" length="4.15" shape="519.40,369.02 519.51,372.32 519.12,373.07"/>
    </edge>
    <edge id=":V0025_7" function="internal">
        <lane id=":V0025_7_0" index="0" speed="5.46" length="5.94" shape="519.12,373.07 518.71,373.86 516.98,373.65 514.33,371.69"/>
    </edge>
    <edge id=":V0026_0" function="internal">
        <lane id=":V0026_0_0" index="0" speed="5.85" length="9.12" shape="158.94,806.68 161.48,807.47 163.35,807.14 164.57,805.67 165.12,803.07"/>
    </edge>
    <edge id=":V0026_1" function="internal">
        <lane id=":V0026_1_0" index="0" speed="15.00" length="20.82" shape="158.94,806.68 177.74,815.61"/>
        <lane id=":V0026_1_1" index="1" speed="15.00" length="20.82" shape="157.57,809.57 176.37,818.50"/>
    </edge>
    <edge id=":V0026_3" function="internal">
        <lane id=":V0026_3_0" index="0" speed="11.50" length="18.80" shape="170.19,822.11 169.95,818.39 169.14,814.37 168.37,809.51 168.31,803.29"/>
        <lane id=":V0026_3_1" index="1" speed="11.50" length="18.80" shape="170.19,822.11 171.50,803.52"/>
    </edge>
    <edge id=":V0026_5" function="internal">