<nodes><node id="V0001" x="970.6" y="622.9680000000001" type="priority" /><node id="V0002" x="806.9933333333333" y="164.328" type="priority" /><node id="V0003" x="804.42" y="1041.3733333333334" type="priority" /><node id="V0004" x="232.39666666666665" y="303.85066666666665" type="priority" /><node id="V0005" x="356.4886666666667" y="988.4066666666666" type="priority" /><node id="V0006" x="195.31866666666667" y="751.88" type="priority" /><node id="V0007" x="446.53066666666666" y="728.8333333333334" type="priority" /><node id="V0008" x="417.75333333333333" y="118.72133333333333" type="priority" /><node id="V0009" x="407.2386666666667" y="546.7613333333334" type="priority" /><node id="V0010" x="661.804" y="15.430133333333334" type="priority" /><node id="V0011" x="806.5933333333334" y="300.29" type="priority" /><node id="V0012" x="407.71133333333336" y="261.28066666666666" type="priority" /><node id="V0013" x="311.6766666666666" y="741.2" type="priority" /><node id="V0014" x="383.576" y="603.8886666666666" type="priority" /><node id="V0015" x="389.35133333333334" y="521.9093333333334" type="priority" /><node id="V0016" x="439.05333333333334" y="570.298" type="priority" /><node id="V0017" x="680.44" y="149.5" type="priority" /><node id="V0018" x="806.0866666666666" y="472.9146666666667" type="priority" /><node id="V0019" x="324.7646666666667" y="813.4" type="priority" /><node id="V0020" x="471.05199999999996" y="245.9" type="priority" /><node id="V0021" x="733.0866666666666" y="155.668" type="priority" /><node id="V0022" x="374.308" y="735.4599999999999" type="priority" /><node id="V0023" x="390.36466666666666" y="507.5226666666667" type="priority" /><node id="V0024" x="424.28799999999995" y="257.25533333333334" type="priority" /><node id="V0025" x="713.6800000000001" y="388.6346666666667" type="priority" /><node id="V0026" x="367.39000000000004" y="833.66" type="priority" /><node id="V0027" x="745.12" y="179.35066666666668" type="priority" /><node id="V0028" x="686.5666666666667" y="193.56933333333333" type="priority" /><node id="V0029" x="539.08" y="229.382" type="priority" /></nodes>