<nodes><node id="V0001" x="1213.25" y="778.71" type="priority" /><node id="V0002" x="1008.7416666666667" y="205.41" type="priority" /><node id="V0003" x="1005.525" y="1301.7166666666667" type="priority" /><node id="V0004" x="290.49583333333334" y="379.81333333333333" type="priority" /><node id="V0005" x="445.61083333333335" y="1235.5083333333334" type="priority" /><node id="V0006" x="244.14833333333334" y="939.85" type="priority" /><node id="V0007" x="558.1633333333333" y="911.0416666666666" type="priority" /><node id="V0008" x="522.1916666666667" y="148.40166666666667" type="priority" /><node id="V0009" x="509.04833333333335" y="683.4516666666667" type="priority" /><node id="V0010" x="827.255" y="19.287666666666667" type="priority" /><node id="V0011" x="1008.2416666666667" y="375.3625" type="priority" /><node id="V0012" x="509.63916666666665" y="326.60083333333336" type="priority" /><node id="V0013" x="389.5958333333333" y="926.5" type="priority" /><node id="V0014" x="479.47" y="754.8608333333333" type="priority" /><node id="V0015" x="486.6891666666667" y="652.3866666666667" type="priority" /><node id="V0016" x="548.8166666666667" y="712.8725" type="priority" /><node id="V0017" x="850.5500000000001" y="186.875" type="priority" /><node id="V0018" x="1007.6083333333332" y="591.1433333333333" type="priority" /><node id="V0019" x="405.9558333333334" y="1016.75" type="priority" /><node id="V0020" x="588.8149999999999" y="307.375" type="priority" /><node id="V0021" x="916.3583333333332" y="194.585" type="priority" /><node id="V0022" x="467.885" y="919.3249999999999" type="priority" /><node id="V0023" x="487.9558333333334" y="634.4033333333333" type="priority" /><node id="V0024" x="530.36" y="321.56916666666666" type="priority" /><node id="V0025" x="892.1" y="485.79333333333335" type="priority" /><node id="V0026" x="459.2375" y="1042.075" type="priority" /><node id="V0027" x="931.4" y="224.18833333333336" type="priority" /><node id="V0028" x="858.2083333333334" y="241.96166666666667" type="priority" /><node id="V0029" x="673.85" y="286.7275" type="priority" /></nodes>