<configuration><input><net-file value="6.net.xml" /><route-files value="6.rou.xml" /></input><time><begin value="0" /></time></configuration>