<?xml version="1.0" encoding="UTF-8"?>

<!-- generated on 2023-06-27 19:19:01 by Eclipse SUMO netconvert Version 1.16.0
<configuration xmlns:xsi="http://www.w3.org/2001/XMLSchema-instance" xsi:noNamespaceSchemaLocation="http://sumo.dlr.de/xsd/netconvertConfiguration.xsd">

    <input>
        <node-files value="data/simulationConfigurations/optimized\optimized.nod.xml"/>
        <edge-files value="data/simulationConfigurations/optimized\optimized.edg.xml"/>
    </input>

    <output>
        <output-file value="data/simulationConfigurations/optimized\optimized.net.xml"/>
    </output>

</configuration>
-->

<net version="1.16" junctionCornerDetail="5" limitTurnSpeed="5.50" xmlns:xsi="http://www.w3.org/2001/XMLSchema-instance" xsi:noNamespaceSchemaLocation="http://sumo.dlr.de/xsd/net_file.xsd">

    <location netOffset="-244.15,-19.29" convBoundary="0.00,0.00,969.10,1282.43" origBoundary="244.15,19.29,1213.25,1301.72" projParameter="!"/>

    <edge id=":V0002_0" function="internal">
        <lane id=":V0002_0_0" index="0" speed="7.70" length="25.31" shape="761.25,200.57 764.77,208.93 767.29,211.48 768.82,208.23 769.35,199.18"/>
        <lane id=":V0002_0_1" index="1" speed="3.99" length="5.30" shape="764.46,200.02 765.19,201.77 765.72,202.31 766.04,201.63 766.15,199.73"/>
    </edge>
    <edge id=":V0002_2" function="internal">
        <lane id=":V0002_2_0" index="0" speed="6.87" length="9.39" shape="767.66,199.48 766.48,197.20 764.86,195.76 762.80,195.16 760.30,195.40"/>
    </edge>
    <edge id=":V0002_3" function="internal">
        <lane id=":V0002_3_0" index="0" speed="11.52" length="27.87" shape="756.84,177.16 762.34,179.09 766.26,183.40 768.60,190.10 769.35,199.18"/>
        <lane id=":V0002_3_1" index="1" speed="10.65" length="23.68" shape="756.46,180.34 760.72,181.98 763.76,185.76 765.57,191.68 766.15,199.73"/>
    </edge>
    <edge id=":V0002_5" function="internal">
        <lane id=":V0002_5_0" index="0" speed="5.71" length="12.96" shape="756.09,183.52 759.54,184.97 761.68,187.67 761.88,190.48 759.54,192.29"/>
        <lane id=":V0002_5_1" index="1" speed="6.53" length="17.54" shape="756.09,183.52 762.84,184.64 765.54,185.96 764.19,187.47 758.79,189.18"/>
    </edge>
    <edge id=":V0003_0" function="internal">
        <lane id=":V0003_0_0" index="0" speed="11.04" length="43.24" shape="763.12,1232.91 761.08,1243.20 756.19,1256.78 750.21,1267.75 744.93,1270.19"/>
    </edge>
    <edge id=":V0003_1" function="internal">
        <lane id=":V0003_1_0" index="0" speed="11.27" length="49.45" shape="763.12,1232.91 762.47,1249.46 760.16,1264.18 755.47,1271.88 747.70,1267.40"/>
    </edge>
    <edge id=":V0003_2" function="internal">
        <lane id=":V0003_2_0" index="0" speed="10.50" length="52.17" shape="759.37,1233.17 760.74,1250.22 759.53,1265.32 754.63,1273.61 744.93,1270.19"/>
    </edge>
    <edge id=":V0003_3" function="internal">
        <lane id=":V0003_3_0" index="0" speed="9.55" length="37.21" shape="756.21,1233.61 756.16,1243.59 754.45,1256.44 751.50,1266.32 747.70,1267.40"/>
    </edge>
    <edge id=":V0003_4" function="internal">
        <lane id=":V0003_4_0" index="0" speed="6.57" length="17.06" shape="754.78,1262.55 755.10,1267.08 752.81,1270.47 749.04,1271.82 744.93,1270.19"/>
    </edge>
    <edge id=":V0003_5" function="internal">
        <lane id=":V0003_5_0" index="0" speed="5.55" length="12.54" shape="754.78,1262.55 754.83,1266.42 753.66,1268.52 751.29,1268.85 747.70,1267.40"/>
    </edge>
    <edge id=":V0003_6" function="internal">
        <lane id=":V0003_6_0" index="0" speed="3.30" length="3.09" shape="745.37,1269.51 744.34,1269.07 743.92,1269.04 744.11,1269.41 744.93,1270.19"/>
    </edge>
    <edge id=":V0003_7" function="internal">
        <lane id=":V0003_7_0" index="0" speed="6.21" length="15.01" shape="743.60,1272.21 748.50,1274.12 750.82,1273.95 750.55,1271.71 747.70,1267.40"/>
    </edge>
    <edge id=":V0004_0" function="internal">
        <lane id=":V0004_0_0" index="0" speed="8.80" length="35.67" shape="54.46,373.60 62.75,383.59 66.39,386.21 65.39,381.47 59.76,369.36"/>
    </edge>
    <edge id=":V0004_1" function="internal">
        <lane id=":V0004_1_0" index="0" speed="5.66" length="10.74" shape="54.46,373.60 51.44,370.05 49.21,368.24 47.79,368.18 47.18,369.85"/>
    </edge>
    <edge id=":V0004_2" function="internal">
        <lane id=":V0004_2_0" index="0" speed="6.21" length="14.91" shape="54.46,373.60 52.04,370.17 50.14,366.82 48.78,363.55 47.94,360.35"/>
    </edge>
    <edge id=":V0004_3" function="internal">
        <lane id=":V0004_3_0" index="0" speed="10.04" length="20.76" shape="54.46,373.60 50.32,367.48 48.13,362.35 47.89,358.19 49.61,355.00"/>
    </edge>
    <edge id=":V0004_4" function="internal">
        <lane id=":V0004_4_0" index="0" speed="3.45" length="3.88" shape="54.46,373.60 54.36,372.41 54.67,371.74 55.40,371.58 56.54,371.94"/>
    </edge>
    <edge id=":V0004_5" function="internal">
        <lane id=":V0004_5_0" index="0" speed="5.85" length="9.19" shape="63.96,361.19 61.49,362.17 60.26,363.63 60.27,365.55 61.54,367.94"/>
        <lane id=":V0004_5_1" index="1" speed="6.77" length="12.76" shape="63.96,361.19 60.07,362.61 57.95,364.54 57.61,366.98 59.04,369.94"/>
        <lane id=":V0004_5_2" index="2" speed="7.59" length="16.39" shape="63.96,361.19 58.66,363.04 55.65,365.44 54.94,368.41 56.54,371.94"/>
    </edge>
    <edge id=":V0004_8" function="internal">
        <lane id=":V0004_8_0" index="0" speed="7.56" length="14.73" shape="63.96,361.19 59.56,362.79 56.97,365.03 56.18,367.90 57.20,371.41"/>
        <lane id=":V0004_8_1" index="1" speed="8.37" length="18.38" shape="63.96,361.19 58.20,363.21 54.73,365.93 53.55,369.34 54.65,373.45"/>
    </edge>
    <edge id=":V0004_10" function="internal">
        <lane id=":V0004_10_0" index="0" speed="10.64" length="19.56" shape="63.96,361.19 56.76,363.22 51.57,365.34 48.38,367.56 47.18,369.85"/>
    </edge>
    <edge id=":V0004_11" function="internal">
        <lane id=":V0004_11_0" index="0" speed="8.54" length="15.59" shape="63.21,358.08 56.62,359.59 51.88,360.47 48.99,360.72 47.94,360.35"/>
    </edge>
    <edge id=":V0004_12" function="internal">
        <lane id=":V0004_12_0" index="0" speed="6.92" length="18.45" shape="63.21,358.08 57.14,359.14 51.53,359.28 48.37,358.05 49.61,355.00"/>
    </edge>
    <edge id=":V0005_0" function="internal">
        <lane id=":V0005_0_0" index="0" speed="7.24" length="22.97" shape="200.20,1200.27 198.33,1191.84 196.77,1188.92 195.54,1191.51 194.61,1199.62"/>
        <lane id=":V0005_0_1" index="1" speed="5.01" length="9.88" shape="200.20,1200.27 199.39,1196.64 198.72,1195.39 198.19,1196.50 197.79,1199.99"/>
        <lane id=":V0005_0_2" index="2" speed="3.33" length="3.20" shape="200.20,1200.27 200.46,1201.44 200.67,1201.85 200.85,1201.49 200.98,1200.36"/>
    </edge>
    <edge id=":V0005_3" function="internal">
        <lane id=":V0005_3_0" index="0" speed="6.18" length="15.11" shape="200.20,1200.27 199.42,1203.65 196.39,1204.81 192.50,1203.89 189.17,1201.02"/>
    </edge>
    <edge id=":V0006_0" function="internal">
        <lane id=":V0006_0_0" index="0" speed="9.71" length="15.00" shape="3.16,928.03 1.45,921.80 5.24,917.62 7.98,916.69"/>
        <lane id=":V0006_0_1" index="1" speed="9.20" length="15.02" shape="3.16,928.03 2.34,923.35 6.34,920.13 11.27,918.73"/>
    </edge>
    <edge id=":V0006_2" function="internal">
        <lane id=":V0006_2_0" index="0" speed="7.67" length="23.27" shape="3.16,928.03 2.30,923.58 6.40,921.91 13.16,922.51 20.30,924.89"/>
        <lane id=":V0006_2_1" index="1" speed="7.30" length="20.90" shape="3.16,928.03 2.42,924.41 6.22,923.78 12.43,925.22 18.92,927.78"/>
    </edge>
    <edge id=":V0006_6" function="internal">
        <lane id=":V0006_6_0" index="0" speed="9.71" length="14.68" shape="7.98,916.69 12.77,915.06 22.29,913.70"/>
    </edge>
    <edge id=":V0006_7" function="internal">
        <lane id=":V0006_7_0" index="0" speed="9.20" length="11.48" shape="11.27,918.73 13.61,918.07 22.58,916.88"/>
    </edge>
    <edge id=":V0006_4" function="internal">
        <lane id=":V0006_4_0" index="0" speed="9.11" length="21.21" shape="2.77,906.43 3.79,908.89 7.34,910.40 13.40,910.93 22.00,910.51"/>
    </edge>
    <edge id=":V0006_5" function="internal">
        <lane id=":V0006_5_0" index="0" speed="12.31" length="25.36" shape="2.77,906.43 3.76,909.78 7.24,913.50 13.21,917.57 21.67,922.00"/>
    </edge>
    <edge id=":V0007_0" function="internal">
        <lane id=":V0007_0_0" index="0" speed="10.50" length="23.49" shape="315.98,895.59 314.37,893.01 313.10,888.36 312.15,881.63 311.52,872.82"/>
    </edge>
    <edge id=":V0007_1" function="internal">
        <lane id=":V0007_1_0" index="0" speed="5.68" length="12.48" shape="306.88,874.04 309.11,877.82 310.63,878.88 311.43,877.21 311.52,872.82"/>
    </edge>
    <edge id=":V0007_2" function="internal">
        <lane id=":V0007_2_0" index="0" speed="8.35" length="15.04" shape="304.90,884.56 307.99,883.58 310.13,881.30 311.30,877.71 311.52,872.82"/>
    </edge>
    <edge id=":V0008_0" function="internal">
        <lane id=":V0008_0_0" index="0" speed="5.50" length="89.35" shape="274.07,214.75 272.94,180.62 273.44,152.79 276.29,134.24 282.20,127.99"/>
    </edge>
    <edge id=":V0008_1" function="internal">
        <lane id=":V0008_1_0" index="0" speed="7.00" length="54.59" shape="277.27,214.60 297.89,164.05"/>
        <lane id=":V0008_1_1" index="1" speed="7.00" length="67.90" shape="280.47,214.45 280.61,191.08 283.07,169.36 287.84,157.89 294.94,165.29"/>
    </edge>
    <edge id=":V0008_3" function="internal">
        <lane id=":V0008_3_0" index="0" speed="5.65" length="12.25" shape="304.80,160.02 301.44,157.35 299.66,156.93 299.46,158.75 300.84,162.81"/>
        <lane id=":V0008_3_1" index="1" speed="8.21" length="28.04" shape="306.96,157.65 299.26,151.55 295.18,150.58 294.72,154.74 297.89,164.05"/>
    </edge>
    <edge id=":V0008_5" function="internal">
        <lane id=":V0008_5_0" index="0" speed="10.18" length="40.74" shape="306.96,157.65 295.36,146.79 285.85,137.07 280.71,130.22 282.20,127.99"/>
    </edge>
    <edge id=":V0008_6" function="internal">
        <lane id=":V0008_6_0" index="0" speed="14.23" length="23.04" shape="263.73,141.15 270.03,135.18 275.21,131.00 279.27,128.60 282.20,127.99"/>
    </edge>
    <edge id=":V0008_7" function="internal">
        <lane id=":V0008_7_0" index="0" speed="12.94" length="50.34" shape="263.73,141.15 273.91,135.68 282.91,139.29 290.85,149.55 297.89,164.05"/>
    </edge>
    <edge id=":V0008_8" function="internal">
        <lane id=":V0008_8_0" index="0" speed="11.50" length="90.06" shape="264.03,214.26 267.48,175.99 271.66,148.85 276.57,132.85 282.20,127.99"/>
    </edge>
    <edge id=":V0008_9" function="internal">
        <lane id=":V0008_9_0" index="0" speed="11.79" length="59.03" shape="267.22,214.48 297.89,164.05"/>
        <lane id=":V0008_9_1" index="1" speed="13.00" length="73.06" shape="270.41,214.71 273.49,190.11 279.04,167.93 286.41,156.78 294.94,165.29"/>
    </edge>
    <edge id=":V0010_0" function="internal">
        <lane id=":V0010_0_0" index="0" speed="5.01" length="9.60" shape="581.92,1.20 583.63,4.15 584.67,4.95 585.04,3.62 584.74,0.14"/>
    </edge>
    <edge id=":V0011_0" function="internal">
        <lane id=":V0011_0_0" index="0" speed="5.59" length="11.74" shape="776.86,384.72 774.75,381.23 773.23,380.26 772.32,381.81 772.01,385.87"/>
    </edge>
    <edge id=":V0011_1" function="internal">
        <lane id=":V0011_1_0" index="0" speed="14.00" length="35.39" shape="776.86,384.72 773.59,379.40 768.28,371.37 762.54,362.51 758.00,354.68"/>
        <lane id=":V0011_1_1" index="1" speed="14.00" length="35.39" shape="776.86,384.72 760.85,353.23"/>
    </edge>
    <edge id=":V0011_3" function="internal">
        <lane id=":V0011_3_0" index="0" speed="14.00" length="33.77" shape="768.91,352.09 768.81,385.86"/>
        <lane id=":V0011_3_1" index="1" speed="14.00" length="33.77" shape="765.71,352.08 765.61,385.85"/>
    </edge>
    <edge id=":V0011_5" function="internal">
        <lane id=":V0011_5_0" index="0" speed="5.59" length="4.42" shape="765.71,352.08 765.39,356.14 765.21,356.44"/>
    </edge>
    <edge id=":V0011_6" function="internal">
        <lane id=":V0011_6_0" index="0" speed="5.59" length="7.32" shape="765.21,356.44 764.48,357.69 762.96,356.72 760.85,353.23"/>
    </edge>
    <edge id=":V0012_0" function="internal">
        <lane id=":V0012_0_0" index="0" speed="17.50" length="20.27" shape="269.76,307.92 266.14,309.32 262.18,311.41 257.32,313.72 250.96,315.78"/>
        <lane id=":V0012_0_1" index="1" speed="17.50" length="20.27" shape="269.76,307.92 250.21,312.67"/>
    </edge>
    <edge id=":V0012_2" function="internal">
        <lane id=":V0012_2_0" index="0" speed="6.82" length="12.38" shape="269.76,307.92 265.73,308.46 262.92,307.82 261.34,305.99 260.98,302.99"/>
        <lane id=":V0012_2_1" index="1" speed="5.94" length="9.09" shape="269.76,307.92 267.15,308.18 265.35,307.48 264.36,305.82 264.18,303.21"/>
    </edge>
    <edge id=":V0012_4" function="internal">
        <lane id=":V0012_4_0" index="0" speed="5.94" length="9.09" shape="256.54,320.49 256.36,317.88 255.37,316.23 253.57,315.53 250.96,315.78"/>
        <lane id=":V0012_4_1" index="1" speed="7.56" length="15.53" shape="259.73,320.72 259.42,316.26 257.72,313.44 254.65,312.24 250.21,312.67"/>
    </edge>
    <edge id=":V0012_6" function="internal">
        <lane id=":V0012_6_0" index="0" speed="17.50" length="18.39" shape="262.93,320.94 262.31,315.45 260.36,311.85 258.41,308.25 257.79,302.76"/>
        <lane id=":V0012_6_1" index="1" speed="17.50" length="18.39" shape="262.93,320.94 262.80,315.60 261.96,311.96 261.11,308.33 260.98,302.99"/>
        <lane id=":V0012_6_2" index="2" speed="17.50" length="18.39" shape="262.93,320.94 264.18,303.21"/>
    </edge>
    <edge id=":V0013_0" function="internal">
        <lane id=":V0013_0_0" index="0" speed="7.70" length="12.19" shape="144.65,893.84 145.64,896.12 147.66,897.62 150.70,898.36 154.76,898.33"/>
    </edge>
    <edge id=":V0013_1" function="internal">
        <lane id=":V0013_1_0" index="0" speed="13.50" length="17.70" shape="144.65,893.84 145.78,897.29 147.53,900.74 149.40,904.90 150.92,910.52"/>
        <lane id=":V0013_1_1" index="1" speed="13.50" length="17.70" shape="144.65,893.84 147.78,911.09"/>
    </edge>
    <edge id=":V0013_3" function="internal">
        <lane id=":V0013_3_0" index="0" speed="17.95" length="14.60" shape="140.23,899.66 154.76,898.33"/>
        <lane id=":V0013_3_1" index="1" speed="17.95" length="14.60" shape="140.52,902.84 155.06,901.51"/>
        <lane id=":V0013_3_2" index="2" speed="17.95" length="14.60" shape="140.81,906.03 155.35,904.70"/>
    </edge>
    <edge id=":V0013_6" function="internal">
        <lane id=":V0013_6_0" index="0" speed="6.91" length="9.63" shape="140.81,906.03 143.48,906.14 145.53,907.02 146.96,908.67 147.78,911.09"/>
    </edge>
    <edge id=":V0014_0" function="internal">
        <lane id=":V0014_0_0" index="0" speed="5.51" length="11.08" shape="230.60,708.42 232.57,711.64 234.08,712.54 235.13,711.13 235.70,707.39"/>
    </edge>
    <edge id=":V0014_1" function="internal">
        <lane id=":V0014_1_0" index="0" speed="16.00" length="30.58" shape="227.74,709.86 231.96,719.34 234.83,727.49 236.86,733.96 238.55,738.43"/>
    </edge>
    <edge id=":V0014_2" function="internal">
        <lane id=":V0014_2_0" index="0" speed="20.00" length="32.31" shape="230.25,739.23 231.35,730.75 233.11,721.44 234.80,713.07 235.70,707.39"/>
    </edge>
    <edge id=":V0014_3" function="internal">
        <lane id=":V0014_3_0" index="0" speed="5.51" length="4.92" shape="233.44,739.45 234.02,735.72 234.70,734.80"/>
    </edge>
    <edge id=":V0014_4" function="internal">
        <lane id=":V0014_4_0" index="0" speed="5.51" length="6.16" shape="234.70,734.80 235.07,734.30 236.58,735.20 238.55,738.43"/>
    </edge>
    <edge id=":V0015_0" function="internal">
        <lane id=":V0015_0_0" index="0" speed="5.36" length="9.68" shape="234.12,607.70 238.93,616.10"/>
        <lane id=":V0015_0_1" index="1" speed="6.72" length="16.18" shape="231.52,609.57 235.96,615.25 239.21,618.27 241.26,618.63 242.12,616.33"/>
    </edge>
    <edge id=":V0015_2" function="internal">
        <lane id=":V0015_2_0" index="0" speed="14.00" length="29.64" shape="228.92,611.44 234.86,618.84 239.91,623.97 244.43,628.36 248.77,633.54"/>
        <lane id=":V0015_2_1" index="1" speed="14.00" length="29.64" shape="228.92,611.44 246.18,635.41"/>
    </edge>
    <edge id=":V0015_4" function="internal">
        <lane id=":V0015_4_0" index="0" speed="19.50" length="20.70" shape="240.66,636.98 242.12,616.33"/>
    </edge>
    <edge id=":V0015_5" function="internal">
        <lane id=":V0015_5_0" index="0" speed="5.46" length="4.15" shape="240.66,636.98 241.23,633.73 241.77,633.07"/>
    </edge>
    <edge id=":V0015_6" function="internal">
        <lane id=":V0015_6_0" index="0" speed="5.46" length="5.93" shape="241.77,633.07 242.34,632.38 243.99,632.95 246.18,635.41"/>
    </edge>
    <edge id=":V0016_0" function="internal">
        <lane id=":V0016_0_0" index="0" speed="5.50" length="18.62" shape="303.45,701.73 302.53,698.27 300.31,694.98 297.09,691.28 293.13,686.55"/>
    </edge>
    <edge id=":V0016_1" function="internal">
        <lane id=":V0016_1_0" index="0" speed="10.50" length="18.85" shape="303.45,701.73 302.78,698.06 301.49,694.15 300.17,689.40 299.37,683.22"/>
        <lane id=":V0016_1_1" index="1" speed="10.50" length="18.85" shape="303.45,701.73 302.57,683.06"/>
    </edge>
    <edge id=":V0016_3" function="internal">
        <lane id=":V0016_3_0" index="0" speed="11.00" length="18.68" shape="307.11,699.35 295.66,684.58"/>
    </edge>
    <edge id=":V0016_4" function="internal">
        <lane id=":V0016_4_0" index="0" speed="16.00" length="17.20" shape="307.11,699.35 305.17,696.33 303.84,692.89 303.02,688.62 302.57,683.06"/>
    </edge>
    <edge id=":V0017_0" function="internal">
        <lane id=":V0017_0_0" index="0" speed="8.13" length="11.82" shape="607.11,161.03 607.94,163.33 609.74,165.11 612.50,166.38 616.23,167.13"/>
    </edge>
    <edge id=":V0017_1" function="internal">
        <lane id=":V0017_1_0" index="0" speed="22.50" length="11.44" shape="607.11,161.03 608.02,163.97 609.42,166.04 610.84,168.25 611.81,171.64"/>
        <lane id=":V0017_1_1" index="1" speed="22.50" length="11.44" shape="607.11,161.03 608.64,172.08"/>
    </edge>
    <edge id=":V0017_3" function="internal">
        <lane id=":V0017_3_0" index="0" speed="7.50" length="13.63" shape="602.69,165.54 616.23,167.13"/>
    </edge>
    <edge id=":V0017_4" function="internal">
        <lane id=":V0017_4_0" index="0" speed="7.38" length="9.60" shape="602.69,165.54 604.98,166.18 606.74,167.48 607.96,169.44 608.64,172.08"/>
    </edge>
    <edge id=":V0018_0" function="internal">
        <lane id=":V0018_0_0" index="0" speed="6.43" length="13.73" shape="774.91,584.47 770.60,581.01 767.51,579.62 765.65,580.31 765.03,583.08"/>
    </edge>
    <edge id=":V0018_1" function="internal">
        <lane id=":V0018_1_0" index="0" speed="15.00" length="10.85" shape="771.45,575.10 770.44,577.81 768.24,579.14 766.03,580.45 765.03,583.08"/>
    </edge>
    <edge id=":V0019_0" function="internal">
        <lane id=":V0019_0_0" index="0" speed="10.83" length="14.08" shape="164.06,982.96 165.15,987.96 166.38,991.76 167.76,994.33 169.28,995.70"/>
        <lane id=":V0019_0_1" index="1" speed="11.88" length="17.07" shape="160.91,983.53 162.22,989.28 163.82,993.71 165.72,996.82 167.91,998.59"/>
    </edge>
    <edge id=":V0019_2" function="internal">
        <lane id=":V0019_2_0" index="0" speed="20.50" length="18.22" shape="160.91,983.53 164.16,1001.46"/>
    </edge>
    <edge id=":V0019_3" function="internal">
        <lane id=":V0019_3_0" index="0" speed="22.50" length="15.39" shape="157.16,986.40 160.99,988.77 163.22,991.05 165.45,993.32 169.28,995.70"/>
        <lane id=":V0019_3_1" index="1" speed="22.50" length="15.39" shape="155.79,989.29 159.62,991.66 161.85,993.94 164.07,996.21 167.91,998.59"/>
    </edge>
    <edge id=":V0019_5" function="internal">
        <lane id=":V0019_5_0" index="0" speed="10.77" length="13.91" shape="154.41,992.18 158.33,994.33 161.26,996.59 163.20,998.97 164.16,1001.46"/>
    </edge>
    <edge id=":V0020_0" function="internal">
        <lane id=":V0020_0_0" index="0" speed="7.32" length="13.14" shape="359.89,292.62 355.43,294.08 352.57,295.89 351.31,298.07 351.64,300.60"/>
    </edge>
    <edge id=":V0020_1" function="internal">
        <lane id=":V0020_1_0" index="0" speed="15.00" length="18.07" shape="359.13,289.51 353.32,290.41 348.69,290.40 344.79,290.22 341.16,290.59"/>
    </edge>
    <edge id=":V0020_2" function="internal">
        <lane id=":V0020_2_0" index="0" speed="11.00" length="19.54" shape="350.50,281.31 351.98,287.43 351.75,292.56 351.17,296.89 351.64,300.60"/>
    </edge>
    <edge id=":V0020_3" function="internal">
        <lane id=":V0020_3_0" index="0" speed="7.04" length="12.03" shape="347.55,282.54 348.07,285.26 347.18,287.50 344.88,289.28 341.16,290.59"/>
    </edge>
    <edge id=":V0021_0" function="internal">
        <lane id=":V0021_0_0" index="0" speed="20.50" length="20.86" shape="666.89,182.49 665.07,176.70 665.27,172.24 665.50,167.82 663.75,162.18"/>
    </edge>
    <edge id=":V0021_1" function="internal">
        <lane id=":V0021_1_0" index="0" speed="7.38" length="17.28" shape="669.74,181.04 667.98,176.08 668.56,172.75 671.48,171.06 676.74,171.00"/>
        <lane id=":V0021_1_1" index="1" speed="5.61" length="9.32" shape="672.60,179.59 671.64,176.91 671.96,175.12 673.53,174.21 676.37,174.17"/>
    </edge>
    <edge id=":V0021_3" function="internal">
        <lane id=":V0021_3_0" index="0" speed="6.44" length="12.79" shape="656.97,171.90 660.46,171.76 662.27,170.34 662.42,167.63 660.89,163.63"/>
    </edge>
    <edge id=":V0021_4" function="internal">
        <lane id=":V0021_4_0" index="0" speed="15.50" length="20.04" shape="656.97,171.90 660.78,171.34 665.08,169.63 670.36,168.03 677.11,167.82"/>
        <lane id=":V0021_4_1" index="1" speed="15.50" length="20.04" shape="656.97,171.90 660.78,171.84 665.03,171.23 670.21,170.73 676.74,171.00"/>
        <lane id=":V0021_4_2" index="2" speed="15.50" length="20.04" shape="656.97,171.90 676.37,174.17"/>
    </edge>
    <edge id=":V0022_0" function="internal">
        <lane id=":V0022_0_0" index="0" speed="8.18" length="13.05" shape="209.93,893.27 214.13,892.52 217.18,891.17 219.10,889.19 219.87,886.61"/>
        <lane id=":V0022_0_1" index="1" speed="9.42" length="17.60" shape="210.23,896.46 215.62,895.43 219.55,893.49 222.04,890.62 223.06,886.83"/>
    </edge>
    <edge id=":V0022_2" function="internal">
        <lane id=":V0022_2_0" index="0" speed="22.50" length="18.70" shape="210.52,899.64 215.93,898.14 219.24,895.63 222.54,893.12 227.95,891.62"/>
        <lane id=":V0022_2_1" index="1" speed="22.50" length="18.70" shape="210.52,899.64 215.86,898.65 219.38,897.22 222.90,895.80 228.24,894.80"/>
        <lane id=":V0022_2_2" index="2" speed="22.50" length="18.70" shape="210.52,899.64 228.54,897.99"/>
    </edge>
    <edge id=":V0022_5" function="internal">
        <lane id=":V0022_5_0" index="0" speed="18.50" length="18.47" shape="215.41,904.43 216.29,899.07 217.64,895.52 218.99,891.97 219.87,886.61"/>
        <lane id=":V0022_5_1" index="1" speed="18.50" length="18.47" shape="218.60,904.65 219.48,899.29 220.83,895.74 222.18,892.19 223.06,886.83"/>
    </edge>
    <edge id=":V0022_7" function="internal">
        <lane id=":V0022_7_0" index="0" speed="8.18" length="13.05" shape="221.79,904.88 222.45,900.67 223.74,897.59 225.67,895.63 228.24,894.80"/>
        <lane id=":V0022_7_1" index="1" speed="7.45" length="10.65" shape="221.79,904.88 222.38,902.08 223.70,900.00 225.75,898.64 228.54,897.99"/>
    </edge>
    <edge id=":V0023_0" function="internal">
        <lane id=":V0023_0_0" index="0" speed="16.00" length="24.84" shape="245.33,624.92 241.22,618.79 237.91,612.73 235.18,607.41 232.78,603.51"/>
    </edge>
    <edge id=":V0023_1" function="internal">
        <lane id=":V0023_1_0" index="0" speed="11.50" length="22.74" shape="247.86,622.95 243.92,617.97 241.28,613.89 239.94,609.24 239.88,602.55"/>
        <lane id=":V0023_1_1" index="1" speed="11.50" length="21.53" shape="247.86,622.95 244.43,617.92 242.90,613.78 242.65,609.18 243.07,602.78"/>
    </edge>
    <edge id=":V0023_3" function="internal">
        <lane id=":V0023_3_0" index="0" speed="13.16" length="14.37" shape="238.94,615.91 238.61,611.61 237.19,608.60 235.11,606.15 232.78,603.51"/>
    </edge>
    <edge id=":V0023_4" function="internal">
        <lane id=":V0023_4_0" index="0" speed="20.00" length="13.72" shape="238.94,615.91 238.72,611.85 237.81,609.12 236.90,606.38 236.69,602.33"/>
        <lane id=":V0023_4_1" index="1" speed="20.00" length="13.72" shape="242.13,616.13 241.92,612.08 241.01,609.34 240.10,606.61 239.88,602.55"/>
        <lane id=":V0023_4_2" index="2" speed="20.00" length="13.72" shape="242.13,616.13 243.07,602.78"/>
    </edge>
    <edge id=":V0024_0" function="internal">
        <lane id=":V0024_0_0" index="0" speed="6.73" length="11.17" shape="281.82,311.00 281.17,308.53 279.52,307.05 276.87,306.57 273.20,307.09"/>
    </edge>
    <edge id=":V0024_1" function="internal">
        <lane id=":V0024_1_0" index="0" speed="11.00" length="12.85" shape="281.82,311.00 281.14,307.26 279.92,304.83 278.71,302.40 278.03,298.66"/>
        <lane id=":V0024_1_1" index="1" speed="11.00" length="12.85" shape="285.01,310.84 284.34,307.11 283.12,304.68 281.91,302.25 281.23,298.51"/>
        <lane id=":V0024_1_2" index="2" speed="11.00" length="12.85" shape="285.01,310.84 284.42,298.36"/>
    </edge>
    <edge id=":V0024_4" function="internal">
        <lane id=":V0024_4_0" index="0" speed="15.50" length="17.78" shape="290.48,302.89 273.20,307.09"/>
    </edge>
    <edge id=":V0024_5" function="internal">
        <lane id=":V0024_5_0" index="0" speed="6.98" length="12.10" shape="290.48,302.89 286.55,303.43 283.69,302.88 281.92,301.24 281.23,298.51"/>
        <lane id=":V0024_5_1" index="1" speed="6.13" length="9.06" shape="290.48,302.89 287.93,303.13 286.08,302.46 284.91,300.87 284.42,298.36"/>
    </edge>
    <edge id=":V0025_0" function="internal">
        <lane id=":V0025_0_0" index="0" speed="11.00" length="13.01" shape="652.16,461.88 653.95,474.77"/>
        <lane id=":V0025_0_1" index="1" speed="11.00" length="13.01" shape="648.99,462.32 650.78,475.21"/>
    </edge>
    <edge id=":V0025_2" function="internal">
        <lane id=":V0025_2_0" index="0" speed="5.46" length="10.08" shape="648.99,462.32 649.10,465.62 648.30,467.17 646.57,466.96 643.92,464.99"/>
    </edge>
    <edge id=":V0026_0" function="internal">
        <lane id=":V0026_0_0" index="0" speed="5.85" length="9.12" shape="201.96,1011.23 204.50,1012.03 206.37,1011.69 207.58,1010.23 208.14,1007.63"/>
        <lane id=":V0026_0_1" index="1" speed="7.50" length="15.87" shape="200.59,1014.12 205.00,1015.51 208.26,1014.92 210.37,1012.37 211.33,1007.85"/>
    </edge>
    <edge id=":V0026_2" function="internal">
        <lane id=":V0026_2_0" index="0" speed="16.00" length="20.98" shape="200.59,1014.12 206.28,1016.27 210.67,1017.15 215.07,1018.02 220.76,1020.17"/>
        <lane id=":V0026_2_1" index="1" speed="16.00" length="20.98" shape="200.59,1014.12 219.39,1023.06"/>
    </edge>
    <edge id=":V0026_4" function="internal">
        <lane id=":V0026_4_0" index="0" speed="9.50" length="18.63" shape="206.83,1026.22 208.14,1007.63"/>
        <lane id=":V0026_4_1" index="1" speed="9.50" length="18.63" shape="210.02,1026.44 211.33,1007.85"/>
        <lane id=":V0026_4_2" index="2" speed="9.50" length="18.63" shape="213.21,1026.67 214.52,1008.08"/>
    </edge>
    <edge id=":V0026_7" function="internal">
        <lane id=":V0026_7_0" index="0" speed="5.85" length="9.12" shape="213.21,1026.67 213.77,1024.07 214.98,1022.60 216.85,1022.26 219.39,1023.06"/>
    </edge>
    <edge id=":V0027_0" function="internal">
        <lane id=":V0027_0_0" index="0" speed="8.64" length="13.75" shape="688.88,218.69 687.09,216.52 684.43,215.31 680.89,215.05 676.48,215.75"/>
    </edge>
    <edge id=":V0027_1" function="internal">
        <lane id=":V0027_1_0" index="0" speed="17.00" length="18.70" shape="688.88,218.69 685.93,214.00 683.27,211.19 680.61,208.38 677.66,203.68"/>
        <lane id=":V0027_1_1" index="1" speed="17.00" length="18.70" shape="691.73,217.24 688.78,212.55 686.12,209.74 683.46,206.93 680.51,202.23"/>
        <lane id=":V0027_1_2" index="2" speed="17.00" length="18.70" shape="691.73,217.24 683.36,200.78"/>
    </edge>
    <edge id=":V0027_4" function="internal">
        <lane id=":V0027_4_0" index="0" speed="14.00" length="19.35" shape="694.42,211.39 688.94,212.21 685.07,212.02 681.21,211.82 675.72,212.64"/>
        <lane id=":V0027_4_1" index="1" speed="14.00" length="19.35" shape="694.42,211.39 688.71,211.75 684.69,210.46 680.68,209.17 674.97,209.53"/>
    </edge>
    <edge id=":V0027_6" function="internal">
        <lane id=":V0027_6_0" index="0" speed="9.22" length="15.80" shape="693.66,208.28 689.48,208.72 685.89,207.86 682.90,205.70 680.51,202.23"/>
        <lane id=":V0027_6_1" index="1" speed="7.93" length="11.46" shape="692.91,205.17 689.87,205.49 687.27,204.87 685.10,203.30 683.36,200.78"/>
    </edge>
    <edge id=":V0028_0" function="internal">
        <lane id=":V0028_0_0" index="0" speed="6.80" length="9.20" shape="625.71,228.08 623.19,229.01 621.49,230.40 620.61,232.23 620.55,234.52"/>
        <lane id=":V0028_0_1" index="1" speed="8.25" length="13.99" shape="624.96,224.97 621.23,226.38 618.73,228.52 617.45,231.38 617.38,234.96"/>
    </edge>
    <edge id=":V0028_2" function="internal">