<?xml version="1.0" encoding="UTF-8"?>

<!-- generated on 2023-06-26 02:05:35 by Eclipse SUMO netconvert Version 1.16.0
<configuration xmlns:xsi="http://www.w3.org/2001/XMLSchema-instance" xsi:noNamespaceSchemaLocation="http://sumo.dlr.de/xsd/netconvertConfiguration.xsd">

    <input>
        <node-files value="data/simulationConfigurations/tests/9\9.nod.xml"/>
        <edge-files value="data/simulationConfigurations/tests/9\9.edg.xml"/>
    </input>

    <output>
        <output-file value="data/simulationConfigurations/tests/9\9.net.xml"/>
    </output>

</configuration>
-->

<net version="1.16" junctionCornerDetail="5" limitTurnSpeed="5.50" xmlns:xsi="http://www.w3.org/2001/XMLSchema-instance" xsi:noNamespaceSchemaLocation="http://sumo.dlr.de/xsd/net_file.xsd">

    <location netOffset="-52.87,-31.51" convBoundary="0.00,0.00,902.37,968.91" origBoundary="52.87,31.51,955.24,1000.42" projParameter="!"/>

    <edge id=":V0001_0" function="internal">
        <lane id=":V0001_0_0" index="0" speed="9.27" length="39.78" shape="209.57,828.85 214.02,814.65 214.40,809.26 210.71,812.68 202.96,824.91"/>
    </edge>
    <edge id=":V0001_1" function="internal">
        <lane id=":V0001_1_0" index="0" speed="6.69" length="10.70" shape="209.57,828.85 209.15,831.49 209.92,833.58 211.87,835.12 215.02,836.11"/>
    </edge>
    <edge id=":V0001_2" function="internal">
        <lane id=":V0001_2_0" index="0" speed="14.01" length="20.83" shape="209.57,828.85 207.56,832.64 204.31,836.07 199.80,839.14 194.05,841.84"/>
        <lane id=":V0001_2_1" index="1" speed="13.29" length="18.69" shape="206.76,827.17 204.96,830.60 202.04,833.69 198.01,836.45 192.87,838.87"/>
    </edge>
    <edge id=":V0001_4" function="internal">
        <lane id=":V0001_4_0" index="0" speed="7.55" length="23.01" shape="203.96,825.50 201.29,828.44 198.40,825.32 195.86,818.71 194.24,811.17"/>
    </edge>
    <edge id=":V0001_5" function="internal">
        <lane id=":V0001_5_0" index="0" speed="7.31" length="22.92" shape="203.96,825.50 197.03,824.08 193.74,821.18 194.09,816.81 198.06,810.96"/>
    </edge>
    <edge id=":V0002_0" function="internal">
        <lane id=":V0002_0_0" index="0" speed="9.56" length="33.50" shape="883.63,960.44 885.75,959.26 884.25,954.20 879.13,945.27 870.39,932.47"/>
        <lane id=":V0002_0_1" index="1" speed="10.02" length="36.98" shape="883.63,960.44 887.62,959.47 887.18,954.17 882.30,944.55 872.99,930.60"/>
    </edge>
    <edge id=":V0002_2" function="internal">
        <lane id=":V0002_2_0" index="0" speed="10.22" length="34.57" shape="883.63,960.44 885.82,958.96 885.36,953.16 882.26,943.04 876.52,928.62"/>
        <lane id=":V0002_2_1" index="1" speed="11.13" length="41.26" shape="883.03,963.59 887.65,962.25 888.59,955.76 885.87,944.14 879.47,927.36"/>
        <lane id=":V0002_2_2" index="2" speed="11.52" length="44.33" shape="883.03,963.59 889.25,962.44 891.22,955.81 888.94,943.70 882.41,926.11"/>
    </edge>
    <edge id=":V0003_0" function="internal">
        <lane id=":V0003_0_0" index="0" speed="13.37" length="86.52" shape="490.61,22.20 503.93,51.44 510.40,60.49 510.01,49.37 502.77,18.07"/>
    </edge>
    <edge id=":V0003_1" function="internal">
        <lane id=":V0003_1_0" index="0" speed="3.39" length="2.76" shape="490.61,22.20 490.61,21.33 490.97,20.39 491.34,19.80 491.37,19.98"/>
        <lane id=":V0003_1_1" index="1" speed="5.23" length="8.92" shape="493.65,21.17 492.07,18.07 490.66,16.65 489.43,16.90 488.38,18.83"/>
        <lane id=":V0003_1_2" index="2" speed="7.29" length="19.00" shape="496.69,20.13 493.48,14.09 490.53,11.67 487.83,12.86 485.40,17.67"/>
    </edge>
    <edge id=":V0003_4" function="internal">
        <lane id=":V0003_4_0" index="0" speed="7.50" length="26.01" shape="496.69,20.13 489.28,17.06 486.23,13.12 487.56,8.32 493.25,2.66"/>
    </edge>
    <edge id=":V0003_5" function="internal">
        <lane id=":V0003_5_0" index="0" speed="9.64" length="23.37" shape="475.71,5.05 482.80,0.20 488.55,-2.07 492.96,-1.79 496.02,1.06"/>
    </edge>
    <edge id=":V0003_6" function="internal">
        <lane id=":V0003_6_0" index="0" speed="10.77" length="35.00" shape="475.71,5.05 484.04,1.10 490.83,2.87 496.06,9.24 499.74,19.10"/>
    </edge>
    <edge id=":V0003_7" function="internal">
        <lane id=":V0003_7_0" index="0" speed="7.37" length="20.99" shape="477.70,7.56 482.62,5.92 486.64,8.13 488.86,12.88 488.38,18.83"/>
        <lane id=":V0003_7_1" index="1" speed="6.72" length="17.14" shape="477.70,7.56 481.56,6.36 484.50,8.48 485.95,12.66 485.40,17.67"/>
    </edge>
    <edge id=":V0003_9" function="internal">
        <lane id=":V0003_9_0" index="0" speed="8.46" length="21.65" shape="478.10,14.86 482.60,8.49 486.88,3.60 490.56,1.30 493.25,2.66"/>
    </edge>
    <edge id=":V0003_10" function="internal">
        <lane id=":V0003_10_0" index="0" speed="8.52" length="25.36" shape="478.10,14.86 483.13,10.45 488.62,10.24 493.50,13.66 496.70,20.13"/>
    </edge>
    <edge id=":V0003_11" function="internal">
        <lane id=":V0003_11_0" index="0" speed="5.32" length="11.41" shape="478.10,14.86 480.98,12.83 483.15,12.62 484.63,14.24 485.40,17.67"/>
    </edge>
    <edge id=":V0004_0" function="internal">
        <lane id=":V0004_0_0" index="0" speed="15.06" length="56.07" shape="104.61,201.56 102.26,178.60 102.34,162.10 104.87,152.05 109.84,148.46"/>
        <lane id=":V0004_0_1" index="1" speed="14.31" length="50.50" shape="107.67,200.37 105.36,179.25 104.97,164.10 106.53,154.90 110.02,151.66"/>
    </edge>
    <edge id=":V0004_2" function="internal">
        <lane id=":V0004_2_0" index="0" speed="5.99" length="14.67" shape="130.76,190.38 126.87,186.75 124.96,185.94 125.03,187.96 127.09,192.80"/>
    </edge>
    <edge id=":V0004_3" function="internal">
        <lane id=":V0004_3_0" index="0" speed="9.50" length="50.81" shape="133.06,188.15 120.23,174.31 110.26,161.69 105.88,152.38 109.84,148.46"/>
        <lane id=":V0004_3_1" index="1" speed="9.50" length="44.14" shape="135.35,185.92 123.57,173.45 114.17,162.55 109.03,154.78 110.02,151.66"/>
    </edge>
    <edge id=":V0005_0" function="internal">
        <lane id=":V0005_0_0" index="0" speed="16.27" length="13.17" shape="204.61,427.49 204.94,423.40 205.77,420.67 207.29,418.16 209.65,414.71"/>
        <lane id=":V0005_0_1" index="1" speed="15.21" length="13.17" shape="207.81,427.57 208.11,424.01 208.88,421.65 210.24,419.47 212.32,416.47"/>
    </edge>
    <edge id=":V0005_2" function="internal">
        <lane id=":V0005_2_0" index="0" speed="5.48" length="10.64" shape="207.81,427.57 208.22,424.02 209.23,422.60 210.83,423.30 213.01,426.12"/>
    </edge>
    <edge id=":V0006_0" function="internal">
        <lane id=":V0006_0_0" index="0" speed="5.94" length="9.09" shape="683.93,734.05 684.93,736.47 686.40,737.72 688.32,737.81 690.71,736.73"/>
        <lane id=":V0006_0_1" index="1" speed="6.81" length="12.40" shape="683.93,734.05 685.35,737.86 687.24,740.03 689.60,740.55 692.42,739.43"/>
    </edge>
    <edge id=":V0006_2" function="internal">
        <lane id=":V0006_2_0" index="0" speed="10.68" length="26.35" shape="683.93,734.05 684.40,740.45 682.20,745.64 677.34,749.61 669.81,752.37"/>
    </edge>
    <edge id=":V0006_3" function="internal">
        <lane id=":V0006_3_0" index="0" speed="6.68" length="17.25" shape="680.83,734.85 681.15,740.12 679.75,744.63 677.08,746.89 673.62,745.42"/>
        <lane id=":V0006_3_1" index="1" speed="6.90" length="18.56" shape="680.83,734.85 682.28,742.21 681.95,746.06 679.83,746.38 675.92,743.19"/>
    </edge>
    <edge id=":V0007_0" function="internal">
        <lane id=":V0007_0_0" index="0" speed="12.64" length="54.51" shape="49.29,903.17 28.76,907.85 11.45,910.89 -0.01,911.28 -2.96,908.00"/>
    </edge>
    <edge id=":V0007_1" function="internal">
        <lane id=":V0007_1_0" index="0" speed="12.45" length="56.59" shape="48.15,899.60 28.22,907.03 10.79,912.17 -0.73,913.13 -2.96,908.00"/>
        <lane id=":V0007_1_1" index="1" speed="11.72" length="49.99" shape="46.98,896.63 28.70,903.62 13.17,908.88 2.80,911.15 0.01,909.19"/>
    </edge>
    <edge id=":V0007_3" function="internal">
        <lane id=":V0007_3_0" index="0" speed="9.90" length="41.38" shape="27.01,899.67 16.04,908.14 4.82,914.22 -2.79,915.10 -2.96,908.00"/>
        <lane id=":V0007_3_1" index="1" speed="9.30" length="36.32" shape="24.85,897.31 15.40,905.52 6.05,912.44 -0.11,914.78 0.01,909.19"/>
    </edge>
    <edge id=":V0008_0" function="internal">
        <lane id=":V0008_0_0" index="0" speed="11.00" length="63.68" shape="306.03,559.51 317.83,584.18 325.89,602.15 330.21,613.40 330.77,617.95"/>
    </edge>
    <edge id=":V0008_1" function="internal">
        <lane id=":V0008_1_0" index="0" speed="15.50" length="65.37" shape="302.34,560.04 316.81,583.52 326.37,601.00 331.02,612.48 330.77,617.95"/>
        <lane id=":V0008_1_1" index="1" speed="15.50" length="61.72" shape="299.64,561.76 313.58,584.16 322.99,600.65 327.89,611.23 328.26,615.91"/>
    </edge>
    <edge id=":V0008_3" function="internal">
        <lane id=":V0008_3_0" index="0" speed="8.25" length="29.88" shape="326.67,614.62 321.65,624.20 321.08,628.28 324.96,626.88 333.29,619.99"/>
    </edge>
    <edge id=":V0010_0" function="internal">
        <lane id=":V0010_0_0" index="0" speed="9.35" length="19.07" shape="308.26,152.52 305.74,147.80 305.22,143.42 306.67,139.40 310.11,135.73"/>
        <lane id=":V0010_0_1" index="1" speed="8.11" length="14.09" shape="310.86,150.66 308.97,147.14 308.55,143.90 309.59,140.93 312.10,138.24"/>
    </edge>
    <edge id=":V0010_2" function="internal">
        <lane id=":V0010_2_0" index="0" speed="12.00" length="10.03" shape="301.49,137.37 304.20,137.39 306.15,137.47 307.93,137.09 310.11,135.73"/>
        <lane id=":V0010_2_1" index="1" speed="12.00" length="10.03" shape="301.68,140.57 304.96,140.54 307.31,140.53 309.45,139.95 312.10,138.24"/>
    </edge>
    <edge id=":V0010_4" function="internal">
        <lane id=":V0010_4_0" index="0" speed="19.00" length="18.07" shape="301.07,151.83 302.92,146.51 304.16,142.71 306.13,139.45 310.11,135.73"/>
        <lane id=":V0010_4_1" index="1" speed="19.00" length="18.07" shape="304.04,153.03 305.69,148.15 306.77,144.66 308.49,141.65 312.10,138.24"/>
    </edge>
    <edge id=":V0011_0" function="internal">
        <lane id=":V0011_0_0" index="0" speed="5.67" length="12.36" shape="295.33,843.38 291.19,844.69 289.83,845.93 291.25,847.10 295.45,848.20"/>
    </edge>
    <edge id=":V0011_1" function="internal">
        <lane id=":V0011_1_0" index="0" speed="23.00" length="30.49" shape="295.33,843.38 265.70,850.58"/>
    </edge>
    <edge id=":V0011_2" function="internal">
        <lane id=":V0011_2_0" index="0" speed="18.50" length="29.79" shape="265.58,845.76 294.85,851.35"/>
    </edge>
    <edge id=":V0011_3" function="internal">
        <lane id=":V0011_3_0" index="0" speed="5.67" length="4.58" shape="265.58,845.76 269.78,846.86 269.97,847.02"/>
    </edge>
    <edge id=":V0011_4" function="internal">
        <lane id=":V0011_4_0" index="0" speed="5.67" length="7.78" shape="269.97,847.02 271.20,848.03 269.84,849.27 265.70,850.58"/>
    </edge>
    <edge id=":V0012_0" function="internal">
        <lane id=":V0012_0_0" index="0" speed="16.50" length="18.10" shape="776.00,692.52 768.91,675.86"/>
        <lane id=":V0012_0_1" index="1" speed="16.50" length="18.10" shape="778.95,691.26 771.86,674.61"/>
        <lane id=":V0012_0_2" index="2" speed="16.50" length="18.10" shape="781.89,690.01 774.80,673.35"/>
    </edge>
    <edge id=":V0012_3" function="internal">
        <lane id=":V0012_3_0" index="0" speed="8.19" length="13.07" shape="781.89,690.01 780.56,685.96 780.30,682.62 781.13,679.99 783.04,678.08"/>
        <lane id=":V0012_3_1" index="1" speed="7.46" length="10.66" shape="781.89,690.01 781.14,687.25 781.37,684.79 782.57,682.63 784.76,680.78"/>
    </edge>
    <edge id=":V0012_5" function="internal">
        <lane id=":V0012_5_0" index="0" speed="8.92" length="15.65" shape="769.48,690.49 771.11,688.51 771.56,685.42 770.83,681.20 768.91,675.86"/>
    </edge>
    <edge id=":V0012_6" function="internal">
        <lane id=":V0012_6_0" index="0" speed="5.00" length="18.65" shape="769.48,690.49 771.97,687.72 773.95,683.86 776.65,679.54 781.33,675.38"/>
        <lane id=":V0012_6_1" index="1" speed="5.00" length="18.65" shape="769.48,690.49 772.29,688.11 774.93,685.13 778.24,681.72 783.04,678.08"/>
        <lane id=":V0012_6_2" index="2" speed="5.00" length="18.65" shape="769.48,690.49 784.76,680.78"/>
    </edge>
    <edge id=":V0013_0" function="internal">
        <lane id=":V0013_0_0" index="0" speed="15.50" length="33.30" shape="156.37,533.62 154.68,528.65 151.48,521.42 148.02,512.33 145.57,501.78"/>
        <lane id=":V0013_0_1" index="1" speed="15.50" length="33.30" shape="156.37,533.62 155.18,528.58 153.06,521.20 150.69,511.96 148.74,501.35"/>
        <lane id=":V0013_0_2" index="2" speed="15.50" length="33.30" shape="156.37,533.62 151.91,500.92"/>
    </edge>
    <edge id=":V0013_3" function="internal">
        <lane id=":V0013_3_0" index="0" speed="13.50" length="31.42" shape="156.37,533.62 155.86,528.66 155.82,521.54 156.96,512.74 159.98,502.74"/>
        <lane id=":V0013_3_1" index="1" speed="13.50" length="30.63" shape="156.37,533.62 156.33,528.85 157.31,522.14 159.47,513.75 162.95,503.94"/>
    </edge>
    <edge id=":V0013_5" function="internal">
        <lane id=":V0013_5_0" index="0" speed="20.00" length="32.06" shape="147.67,533.37 149.20,526.61 148.78,519.67 147.28,511.68 145.57,501.78"/>
        <lane id=":V0013_5_1" index="1" speed="20.00" length="33.65" shape="150.64,534.56 152.20,527.55 151.85,520.05 150.41,511.50 148.74,501.35"/>
    </edge>
    <edge id=":V0013_7" function="internal">
        <lane id=":V0013_7_0" index="0" speed="18.00" length="33.31" shape="150.64,534.56 152.42,527.45 153.12,519.79 154.18,511.27 157.01,501.55"/>
        <lane id=":V0013_7_1" index="1" speed="18.00" length="33.31" shape="150.64,534.56 152.88,527.63 154.61,520.39 156.68,512.28 159.98,502.74"/>
        <lane id=":V0013_7_2" index="2" speed="18.00" length="33.31" shape="150.64,534.56 162.95,503.94"/>
    </edge>
    <edge id=":V0014_0" function="internal">
        <lane id=":V0014_0_0" index="0" speed="14.00" length="18.59" shape="205.77,727.76 192.05,740.30"/>
    </edge>
    <edge id=":V0014_1" function="internal">
        <lane id=":V0014_1_0" index="0" speed="5.48" length="9.68" shape="205.77,727.76 203.28,729.56 201.53,729.74 200.52,728.30 200.24,725.24"/>
    </edge>
    <edge id=":V0014_2" function="internal">
        <lane id=":V0014_2_0" index="0" speed="5.48" length="9.68" shape="199.74,745.18 199.47,742.12 198.45,740.67 196.70,740.86 194.21,742.66"/>
    </edge>
    <edge id=":V0014_3" function="internal">
        <lane id=":V0014_3_0" index="0" speed="21.00" length="20.11" shape="199.74,745.18 199.33,741.35 198.34,737.04 197.38,731.80 197.04,725.15"/>
        <lane id=":V0014_3_1" index="1" speed="21.00" length="20.11" shape="199.74,745.18 200.24,725.24"/>
    </edge>
    <edge id=":V0015_0" function="internal">
        <lane id=":V0015_0_0" index="0" speed="5.81" length="13.41" shape="668.46,655.82 665.45,652.11 663.75,651.19 663.36,653.08 664.28,657.77"/>
    </edge>
    <edge id=":V0015_1" function="internal">
        <lane id=":V0015_1_0" index="0" speed="18.50" length="50.57" shape="668.46,655.82 639.03,614.70"/>
        <lane id=":V0015_1_1" index="1" speed="18.50" length="50.57" shape="671.06,653.96 641.63,612.83"/>
        <lane id=":V0015_1_2" index="2" speed="18.50" length="50.57" shape="673.66,652.09 644.23,610.97"/>
    </edge>
    <edge id=":V0015_4" function="internal">
        <lane id=":V0015_4_0" index="0" speed="12.50" length="51.59" shape="654.61,607.42 656.86,620.18 658.36,634.81 659.62,648.53 661.18,658.57"/>
    </edge>
    <edge id=":V0015_5" function="internal">
        <lane id=":V0015_5_0" index="0" speed="6.11" length="6.47" shape="651.51,608.22 651.10,612.11 649.23,613.86"/>
        <lane id=":V0015_5_1" index="1" speed="5.81" length="4.88" shape="648.41,609.02 649.33,613.71 649.31,613.81"/>
    </edge>
    <edge id=":V0015_7" function="internal">
        <lane id=":V0015_7_0" index="0" speed="6.11" length="8.57" shape="649.23,613.86 648.46,614.58 644.87,615.02 641.63,612.83"/>
    </edge>
    <edge id=":V0015_8" function="internal">
        <lane id=":V0015_8_0" index="0" speed="5.81" length="8.53" shape="649.31,613.81 648.94,615.60 647.24,614.68 644.23,610.97"/>
    </edge>
    <edge id=":V0016_0" function="internal">
        <lane id=":V0016_0_0" index="0" speed="5.66" length="9.25" shape="221.47,386.23 223.01,388.55 224.65,389.39 226.38,388.77 228.21,386.67"/>
    </edge>
    <edge id=":V0016_1" function="internal">
        <lane id=":V0016_1_0" index="0" speed="22.50" length="17.49" shape="221.47,386.23 223.49,389.22 226.08,392.02 228.98,395.46 231.94,400.38"/>
        <lane id=":V0016_1_1" index="1" speed="22.50" length="17.49" shape="221.47,386.23 229.06,401.78"/>
    </edge>
    <edge id=":V0016_3" function="internal">
        <lane id=":V0016_3_0" index="0" speed="12.00" length="15.48" shape="219.66,399.58 228.21,386.67"/>
        <lane id=":V0016_3_1" index="1" speed="12.00" length="15.48" shape="222.33,401.34 230.88,388.43"/>
    </edge>
    <edge id=":V0016_5" function="internal">
        <lane id=":V0016_5_0" index="0" speed="5.66" length="9.25" shape="222.33,401.34 224.16,399.25 225.89,398.62 227.53,399.47 229.06,401.78"/>
    </edge>
    <edge id=":V0017_0" function="internal">
        <lane id=":V0017_0_0" index="0" speed="4.89" length="2.28" shape="303.84,558.25 302.23,559.87"/>
        <lane id=":V0017_0_1" index="1" speed="6.65" length="4.65" shape="300.82,557.20 300.40,558.17 299.85,559.43 299.46,560.68 299.54,561.59"/>
    </edge>
    <edge id=":V0017_2" function="internal">
        <lane id=":V0017_2_0" index="0" speed="12.00" length="7.10" shape="297.80,556.15 295.46,562.85"/>
    </edge>
    <edge id=":V0017_3" function="internal">
        <lane id=":V0017_3_0" index="0" speed="13.50" length="5.59" shape="302.30,565.92 302.23,559.87"/>
        <lane id=":V0017_3_1" index="1" speed="13.50" length="5.59" shape="302.30,565.92 299.54,561.59"/>
    </edge>
    <edge id=":V0017_5" function="internal">
        <lane id=":V0017_5_0" index="0" speed="9.46" length="9.93" shape="302.30,565.92 299.95,562.72 298.03,561.15 296.54,561.19 295.46,562.85"/>
    </edge>
    <edge id=":V0018_0" function="internal">
        <lane id=":V0018_0_0" index="0" speed="17.50" length="14.36" shape="248.78,302.85 245.85,301.27 242.40,300.87 238.62,300.14 234.70,297.53"/>
        <lane id=":V0018_0_1" index="1" speed="17.50" length="14.36" shape="248.78,302.85 246.16,300.87 243.41,299.62 240.41,298.10 237.00,295.30"/>
        <lane id=":V0018_0_2" index="2" speed="17.50" length="14.36" shape="248.78,302.85 239.30,293.07"/>
    </edge>
    <edge id=":V0018_3" function="internal">
        <lane id=":V0018_3_0" index="0" speed="8.25" length="10.30" shape="248.78,302.85 247.39,300.89 246.74,298.62 246.84,296.06 247.68,293.20"/>
    </edge>
    <edge id=":V0018_4" function="internal">
        <lane id=":V0018_4_0" index="0" speed="8.29" length="10.43" shape="238.85,306.58 239.10,304.75 238.49,302.63 237.03,300.22 234.70,297.53"/>
    </edge>
    <edge id=":V0018_5" function="internal">
        <lane id=":V0018_5_0" index="0" speed="22.50" length="15.70" shape="238.85,306.58 244.71,292.01"/>
        <lane id=":V0018_5_1" index="1" speed="22.50" length="15.70" shape="241.82,307.78 247.68,293.20"/>
    </edge>
    <edge id=":V0019_0" function="internal">
        <lane id=":V0019_0_0" index="0" speed="15.00" length="14.94" shape="723.21,726.82 714.51,714.67"/>
        <lane id=":V0019_0_1" index="1" speed="15.00" length="14.94" shape="725.81,724.96 717.11,712.81"/>
    </edge>
    <edge id=":V0019_2" function="internal">
        <lane id=":V0019_2_0" index="0" speed="6.39" length="9.04" shape="725.81,724.96 724.66,722.74 724.52,720.73 725.40,718.90 727.30,717.28"/>
    </edge>
    <edge id=":V0019_3" function="internal">
        <lane id=":V0019_3_0" index="0" speed="6.39" length="9.04" shape="710.42,724.21 712.31,722.59 713.19,720.77 713.06,718.75 711.91,716.53"/>
        <lane id=":V0019_3_1" index="1" speed="7.90" length="14.41" shape="712.13,726.91 715.15,724.32 716.56,721.42 716.34,718.20 714.51,714.67"/>
    </edge>
    <edge id=":V0019_5" function="internal">
        <lane id=":V0019_5_0" index="0" speed="5.50" length="17.97" shape="712.13,726.91 727.30,717.28"/>
    </edge>
    <edge id=":V0020_0" function="internal">
        <lane id=":V0020_0_0" index="0" speed="5.59" length="9.34" shape="187.40,761.06 186.66,758.31 185.39,757.01 183.58,757.19 181.24,758.83"/>
    </edge>
    <edge id=":V0020_1" function="internal">
        <lane id=":V0020_1_0" index="0" speed="13.00" length="21.88" shape="187.40,761.06 184.44,739.39"/>
    </edge>
    <edge id=":V0020_2" function="internal">
        <lane id=":V0020_2_0" index="0" speed="13.50" length="18.76" shape="192.76,743.98 189.01,748.08 187.00,751.41 184.99,754.73 181.24,758.83"/>
        <lane id=":V0020_2_1" index="1" speed="13.50" length="18.76" shape="190.60,741.62 186.85,745.72 184.84,749.05 182.84,752.37 179.08,756.47"/>
        <lane id=":V0020_2_2" index="2" speed="13.50" length="18.76" shape="190.60,741.62 176.93,754.11"/>
    </edge>
    <edge id=":V0020_5" function="internal">
        <lane id=":V0020_5_0" index="0" speed="5.50" length="9.34" shape="190.60,741.62 188.27,743.26 186.46,743.44 185.19,742.15 184.44,739.39"/>
    </edge>
    <edge id=":V0021_0" function="internal">
        <lane id=":V0021_0_0" index="0" speed="13.00" length="17.19" shape="264.99,682.35 261.30,685.84 259.05,688.55 257.44,691.68 255.70,696.45"/>
    </edge>
    <edge id=":V0021_1" function="internal">
        <lane id=":V0021_1_0" index="0" speed="17.50" length="20.95" shape="262.83,679.99 257.38,684.30 252.62,687.15 248.62,689.31 245.43,691.55"/>
    </edge>
    <edge id=":V0021_2" function="internal">
        <lane id=":V0021_2_0" index="0" speed="11.50" length="21.13" shape="256.45,674.84 256.14,678.77 256.79,683.59 257.08,689.43 255.70,696.45"/>
        <lane id=":V0021_2_1" index="1" speed="11.50" length="21.13" shape="256.45,674.84 255.65,678.66 255.23,683.19 254.48,688.68 252.68,695.39"/>
        <lane id=":V0021_2_2" index="2" speed="11.50" length="21.13" shape="256.45,674.84 249.65,694.34"/>
    </edge>
    <edge id=":V0021_5" function="internal">
        <lane id=":V0021_5_0" index="0" speed="16.00" length="20.13" shape="256.45,674.84 254.55,678.97 251.70,683.70 248.47,688.18 245.43,691.55"/>
    </edge>
    <edge id=":V0022_0" function="internal">
        <lane id=":V0022_0_0" index="0" speed="16.00" length="14.87" shape="354.02,210.96 351.06,207.70 348.48,205.97 345.89,204.25 342.94,200.98"/>
        <lane id=":V0022_0_1" index="1" speed="16.00" length="14.87" shape="356.62,209.10 353.67,205.83 351.08,204.11 348.49,202.38 345.54,199.12"/>
        <lane id=":V0022_0_2" index="2" speed="16.00" length="14.87" shape="356.62,209.10 348.14,197.26"/>
    </edge>
    <edge id=":V0022_3" function="internal">
        <lane id=":V0022_3_0" index="0" speed="7.93" length="10.04" shape="356.62,209.10 355.19,206.59 354.57,204.20 354.76,201.91 355.75,199.74"/>
    </edge>
    <edge id=":V0022_4" function="internal">
        <lane id=":V0022_4_0" index="0" speed="6.73" length="7.01" shape="342.92,207.53 343.77,205.84 344.06,204.19 343.78,202.57 342.94,200.98"/>
        <lane id=":V0022_4_1" index="1" speed="8.24" length="10.89" shape="345.59,209.30 346.89,206.69 347.32,204.13 346.87,201.60 345.54,199.12"/>
    </edge>
    <edge id=":V0022_6" function="internal">
        <lane id=":V0022_6_0" index="0" speed="17.50" length="13.58" shape="348.26,211.07 355.75,199.74"/>
    </edge>
    <edge id=":V0023_0" function="internal">
        <lane id=":V0023_0_0" index="0" speed="5.72" length="10.53" shape="209.49,361.66 211.40,364.77 213.16,365.98 214.79,365.30 216.28,362.72"/>
    </edge>
    <edge id=":V0023_1" function="internal">
        <lane id=":V0023_1_0" index="0" speed="14.50" length="20.94" shape="209.49,361.66 218.67,380.48"/>
    </edge>
    <edge id=":V0023_2" function="internal">
        <lane id=":V0023_2_0" index="0" speed="23.50" length="18.46" shape="206.56,378.31 209.04,373.48 211.42,370.51 213.80,367.55 216.28,362.72"/>
        <lane id=":V0023_2_1" index="1" speed="23.50" length="18.46" shape="209.53,379.50 212.01,374.67 214.39,371.71 216.77,368.75 219.25,363.91"/>
    </edge>
    <edge id=":V0023_4" function="internal">
        <lane id=":V0023_4_0" index="0" speed="5.50" length="9.60" shape="212.50,380.70 213.95,378.04 215.46,377.12 217.03,377.93 218.67,380.48"/>
    </edge>
    <edge id=":V0024_0" function="internal">
        <lane id=":V0024_0_0" index="0" speed="11.50" length="19.95" shape="306.86,539.86 305.18,545.75 304.46,550.96 304.72,555.48 305.94,559.33"/>
    </edge>
    <edge id=":V0024_1" function="internal">
        <lane id=":V0024_1_0" index="0" speed="14.00" length="18.41" shape="306.86,539.86 305.55,545.15 305.38,548.96 305.22,552.77 303.91,558.06"/>
        <lane id=":V0024_1_1" index="1" speed="14.00" length="18.41" shape="303.84,538.81 302.52,544.10 302.36,547.91 302.20,551.72 300.89,557.01"/>
        <lane id=":V0024_1_2" index="2" speed="14.00" length="18.41" shape="303.84,538.81 297.86,555.96"/>
    </edge>
    <edge id=":V0024_4" function="internal">
        <lane id=":V0024_4_0" index="0" speed="17.50" length="21.28" shape="299.61,539.06 302.14,545.39 303.60,550.88 304.64,555.53 305.94,559.33"/>
    </edge>
    <edge id=":V0024_5" function="internal">
        <lane id=":V0024_5_0" index="0" speed="13.62" length="17.37" shape="296.74,540.46 299.16,545.94 300.67,550.53 301.24,554.22 300.89,557.01"/>
        <lane id=":V0024_5_1" index="1" speed="13.07" length="15.95" shape="296.74,540.46 298.23,544.36 298.92,548.24 298.80,552.11 297.86,555.96"/>
    </edge>
    <edge id=":V0025_0" function="internal">
        <lane id=":V0025_0_0" index="0" speed="22.00" length="16.97" shape="275.43,330.32 263.62,318.15"/>
    </edge>
    <edge id=":V0025_1" function="internal">
        <lane id=":V0025_1_0" index="0" speed="8.15" length="12.32" shape="275.43,330.32 273.05,327.35 271.82,324.53 271.73,321.84 272.79,319.31"/>
        <lane id=":V0025_1_1" index="1" speed="7.43" length="10.09" shape="275.43,330.32 274.07,328.34 273.62,326.14 274.08,323.72 275.45,321.07"/>
    </edge>
    <edge id=":V0025_3" function="internal">
        <lane id=":V0025_3_0" index="0" speed="8.15" length="12.32" shape="266.26,329.16 267.32,326.63 267.23,323.94 266.00,321.12 263.62,318.15"/>
    </edge>
    <edge id=":V0025_4" function="internal">
        <lane id=":V0025_4_0" index="0" speed="11.50" length="12.19" shape="266.26,329.16 267.82,325.91 268.19,323.35 268.56,320.79 270.12,317.54"/>
        <lane id=":V0025_4_1" index="1" speed="11.50" length="12.19" shape="268.93,330.93 270.48,327.68 270.86,325.12 271.23,322.56 272.79,319.31"/>
        <lane id=":V0025_4_2" index="2" speed="11.50" length="12.19" shape="268.93,330.93 275.45,321.07"/>
    </edge>
    <edge id=":V0026_0" function="internal">
        <lane id=":V0026_0_0" index="0" speed="5.58" length="9.36" shape="404.48,286.98 402.53,284.87 400.81,284.33 399.31,285.34 398.03,287.91"/>
        <lane id=":V0026_0_1" index="1" speed="7.38" length="17.51" shape="407.09,285.11 403.44,281.18 400.21,280.16 397.40,282.05 395.01,286.85"/>
    </edge>
    <edge id=":V0026_2" function="internal">
        <lane id=":V0026_2_0" index="0" speed="14.00" length="26.64" shape="409.69,283.25 404.41,276.73 399.94,272.38 395.83,268.53 391.65,263.55"/>
        <lane id=":V0026_2_1" index="1" speed="14.00" length="26.64" shape="409.69,283.25 394.25,261.69"/>
    </edge>
    <edge id=":V0026_4" function="internal">
        <lane id=":V0026_4_0" index="0" speed="22.00" length="26.52" shape="406.75,262.86 398.03,287.91"/>
        <lane id=":V0026_4_1" index="1" speed="22.00" length="26.52" shape="403.73,261.81 395.01,286.85"/>
        <lane id=":V0026_4_2" index="2" speed="22.00" length="26.52" shape="400.71,260.76 391.98,285.80"/>
    </edge>
    <edge id=":V0026_7" function="internal">
        <lane id=":V0026_7_0" index="0" speed="5.58" length="9.36" shape="400.71,260.76 399.43,263.32 397.93,264.33 396.20,263.79 394.25,261.69"/>
    </edge>
    <edge id=":V0027_0" function="internal">
        <lane id=":V0027_0_0" index="0" speed="5.80" length="9.44" shape="355.93,417.91 353.68,416.11 351.76,415.72 350.17,416.73 348.92,419.14"/>
    </edge>
    <edge id=":V0027_1" function="internal">
        <lane id=":V0027_1_0" index="0" speed="14.50" length="18.74" shape="358.23,415.68 345.18,402.23"/>
    </edge>
    <edge id=":V0027_2" function="internal">
        <lane id=":V0027_2_0" index="0" speed="18.50" length="18.74" shape="357.99,402.84 355.71,407.86 353.45,410.99 351.20,414.12 348.92,419.14"/>
        <lane id=":V0027_2_1" index="1" speed="18.50" length="18.74" shape="354.96,401.79 352.68,406.81 350.43,409.94 348.18,413.06 345.90,418.09"/>
    </edge>
    <edge id=":V0027_4" function="internal">
        <lane id=":V0027_4_0" index="0" speed="5.73" length="9.19" shape="351.94,400.74 350.71,403.16 349.17,404.22 347.33,403.91 345.18,402.23"/>
    </edge>

    <edge id="E0011" from="V0001" to="V0007" priority="-1">
        <lane id="E0011_0" index="0" speed="16.00" length="156.91" shape="194.05,841.84 48.15,899.60"/>
        <lane id="E0011_1" index="1" speed="16.00" length="156.91" shape="192.87,838.87 46.98,896.63"/>
    </edge>
    <edge id="E0013" from="V0001" to="V0008" priority="-1">
        <lane id="E0013_0" index="0" speed="7.00" length="243.98" shape="202.96,824.91 326.67,614.62"/>
    </edge>
    <edge id="E0023" from="V0003" to="V0009" priority="-1">