<nodes><node id="V0001" x="251.928" y="866.2066666666667" type="priority" /><node id="V0002" x="955.24" y="1000.42" type="priority" /><node id="V0003" x="542.7246666666666" y="31.5114" type="priority" /><node id="V0004" x="158.98933333333335" y="184.9993333333333" type="priority" /><node id="V0005" x="262.378" y="455.12466666666666" type="priority" /><node id="V0006" x="735.34" y="779.16" type="priority" /><node id="V0007" x="52.866200000000006" y="945.0133333333334" type="priority" /><node id="V0008" x="382.82399999999996" y="643.7046666666666" type="priority" /><node id="V0009" x="910.6066666666667" y="667.8266666666666" type="priority" /><node id="V0010" x="363.19466666666665" y="173.18266666666665" type="priority" /><node id="V0011" x="322.076" y="879.5933333333334" type="priority" /><node id="V0012" x="834.2800000000001" y="716.3133333333334" type="priority" /><node id="V0013" x="209.52266666666668" y="555.388" type="priority" /><node id="V0014" x="254.608" y="760.7866666666666" type="priority" /><node id="V0015" x="700.7266666666667" y="644.8046666666667" type="priority" /><node id="V0016" x="278.7386666666667" y="430.4026666666667" type="priority" /><node id="V0017" x="348.2846666666667" y="589.6266666666667" type="priority" /><node id="V0018" x="299.99733333333336" y="330.364" type="priority" /><node id="V0019" x="777.6466666666668" y="752.2866666666666" type="priority" /><node id="V0020" x="239.436" y="774.6466666666668" type="priority" /><node id="V0021" x="304.53866666666664" y="715.1933333333333" type="priority" /><node id="V0022" x="407.75866666666667" y="235.45" type="priority" /><node id="V0023" x="268.342" y="409.0953333333334" type="priority" /><node id="V0024" x="351.68" y="579.8806666666666" type="priority" /><node id="V0025" x="326.716" y="357.908" type="priority" /><node id="V0026" x="450.7486666666666" y="295.51800000000003" type="priority" /><node id="V0027" x="401.98133333333334" y="435.498" type="priority" /></nodes>