<?xml version="1.0" encoding="UTF-8"?>

<!-- generated on 2023-06-27 18:34:35.651452 by randomTrips.py v1_16_0+0000-94ec4c6cd72
<configuration>
    <end value="1000"/>
    <fringe-factor value="1"/>
    <net-file value="data/simulationConfigurations/tests/9\9.net.xml"/>
    <period value="0.8"/>
    <output-trip-file value="data/simulationConfigurations/tests/9\9.rou.xml"/>
    <prefix value="random_trip_"/>
</configuration>
-->

<routes xmlns:xsi="http://www.w3.org/2001/XMLSchema-instance" xsi:noNamespaceSchemaLocation="http://sumo.dlr.de/xsd/routes_file.xsd">
    <trip id="random_trip_0" depart="0.00" from="E0088" to="E0013"/>
    <trip id="random_trip_1" depart="0.80" from="E0058" to="E0051"/>
    <trip id="random_trip_2" depart="1.60" from="E0094" to="E0090"/>
    <trip id="random_trip_3" depart="2.40" from="E0104" to="E0039"/>
    <trip id="random_trip_4" depart="3.20" from="E0075" to="E0013"/>
    <trip id="random_trip_5" depart="4.00" from="E0053" to="E0079"/>
    <trip id="random_trip_6" depart="4.80" from="E0013" to="E0048"/>
    <trip id="random_trip_7" depart="5.60" from="E0088" to="E0081"/>
    <trip id="random_trip_8" depart="6.40" from="E0053" to="E0084"/>
    <trip id="random_trip_9" depart="7.20" from="E0100" to="E0011"/>
    <trip id="random_trip_10" depart="8.00" from="E0099" to="E0092"/>
    <trip id="random_trip_11" depart="8.80" from="E0066" to="E0046"/>
    <trip id="random_trip_12" depart="9.60" from="E0108" to="E0062"/>
    <trip id="random_trip_13" depart="10.40" from="E0041" to="E0041"/>
    <trip id="random_trip_14" depart="11.20" from="E0102" to="E0084"/>
    <trip id="random_trip_15" depart="12.00" from="E0099" to="E0093"/>
    <trip id="random_trip_16" depart="12.80" from="E0081" to="E0109"/>
    <trip id="random_trip_17" depart="13.60" from="E0072" to="E0082"/>
    <trip id="random_trip_18" depart="14.40" from="E0101" to="E0085"/>
    <trip id="random_trip_19" depart="15.20" from="E0102" to="E0083"/>
    <trip id="random_trip_20" depart="16.00" from="E0092" to="E0023"/>
    <trip id="random_trip_21" depart="16.80" from="E0053" to="E0058"/>
    <trip id="random_trip_22" depart="17.60" from="E0041" to="E0052"/>
    <trip id="random_trip_23" depart="18.40" from="E0043" to="E0056"/>
    <trip id="random_trip_24" depart="19.20" from="E0088" to="E0068"/>
    <trip id="random_trip_25" depart="20.00" from="E0072" to="E0051"/>
    <trip id="random_trip_26" depart="20.80" from="E0056" to="E0106"/>
    <trip id="random_trip_27" depart="21.60" from="E0088" to="E0085"/>
    <trip id="random_trip_28" depart="22.40" from="E0047" to="E0093"/>
    <trip id="random_trip_29" depart="23.20" from="E0047" to="E0072"/>
    <trip id="random_trip_30" depart="24.00" from="E0111" to="E0087"/>
    <trip id="random_trip_31" depart="24.80" from="E0082" to="E0091"/>
    <trip id="random_trip_32" depart="25.60" from="E0101" to="E0096"/>
    <trip id="random_trip_33" depart="26.40" from="E0053" to="E0013"/>
    <trip id="random_trip_34" depart="27.20" from="E0062" to="E0056"/>
    <trip id="random_trip_35" depart="28.00" from="E0052" to="E0106"/>
    <trip id="random_trip_36" depart="28.80" from="E0103" to="E0060"/>
    <trip id="random_trip_37" depart="29.60" from="E0090" to="E0072"/>
    <trip id="random_trip_38" depart="30.40" from="E0105" to="E0077"/>
    <trip id="random_trip_39" depart="31.20" from="E0056" to="E0053"/>
    <trip id="random_trip_40" depart="32.00" from="E0083" to="E0053"/>
    <trip id="random_trip_41" depart="32.80" from="E0084" to="E0104"/>
    <trip id="random_trip_42" depart="33.60" from="E0074" to="E0051"/>
    <trip id="random_trip_43" depart="34.40" from="E0111" to="E0080"/>
    <trip id="random_trip_44" depart="35.20" from="E0041" to="E0023"/>
    <trip id="random_trip_45" depart="36.00" from="E0043" to="E0087"/>
    <trip id="random_trip_46" depart="36.80" from="E0099" to="E0075"/>
    <trip id="random_trip_47" depart="37.60" from="E0039" to="E0072"/>
    <trip id="random_trip_48" depart="38.40" from="E0111" to="E0081"/>
    <trip id="random_trip_49" depart="39.20" from="E0109" to="E0102"/>
    <trip id="random_trip_50" depart="40.00" from="E0011" to="E0093"/>
    <trip id="random_trip_51" depart="40.80" from="E0091" to="E0081"/>
    <trip id="random_trip_52" depart="41.60" from="E0056" to="E0087"/>
    <trip id="random_trip_53" depart="42.40" from="E0043" to="E0076"/>
    <trip id="random_trip_54" depart="43.20" from="E0077" to="E0108"/>
    <trip id="random_trip_55" depart="44.00" from="E0103" to="E0053"/>
    <trip id="random_trip_56" depart="44.80" from="E0080" to="E0047"/>
    <trip id="random_trip_57" depart="45.60" from="E0105" to="E0103"/>
    <trip id="random_trip_58" depart="46.40" from="E0060" to="E0087"/>
    <trip id="random_trip_59" depart="47.20" from="E0085" to="E0046"/>
    <trip id="random_trip_60" depart="48.00" from="E0095" to="E0081"/>
    <trip id="random_trip_61" depart="48.80" from="E0096" to="E0081"/>
    <trip id="random_trip_62" depart="49.60" from="E0011" to="E0062"/>
    <trip id="random_trip_63" depart="50.40" from="E0013" to="E0106"/>
    <trip id="random_trip_64" depart="51.20" from="E0103" to="E0101"/>
    <trip id="random_trip_65" depart="52.00" from="E0060" to="E0031"/>
    <trip id="random_trip_66" depart="52.80" from="E0103" to="E0108"/>
    <trip id="random_trip_67" depart="53.60" from="E0041" to="E0078"/>
    <trip id="random_trip_68" depart="54.40" from="E0039" to="E0095"/>
    <trip id="random_trip_69" depart="55.20" from="E0095" to="E0043"/>
    <trip id="random_trip_70" depart="56.00" from="E0078" to="E0082"/>
    <trip id="random_trip_71" depart="56.80" from="E0056" to="E0103"/>
    <trip id="random_trip_72" depart="57.60" from="E0076" to="E0051"/>
    <trip id="random_trip_73" depart="58.40" from="E0082" to="E0093"/>
    <trip id="random_trip_74" depart="59.20" from="E0052" to="E0060"/>
    <trip id="random_trip_75" depart="60.00" from="E0111" to="E0088"/>
    <trip id="random_trip_76" depart="60.80" from="E0076" to="E0080"/>
    <trip id="random_trip_77" depart="61.60" from="E0045" to="E0051"/>
    <trip id="random_trip_78" depart="62.40" from="E0066" to="E0084"/>
    <trip id="random_trip_79" depart="63.20" from="E0053" to="E0051"/>
    <trip id="random_trip_80" depart="64.00" from="E0039" to="E0087"/>
    <trip id="random_trip_81" depart="64.80" from="E0053" to="E0104"/>
    <trip id="random_trip_82" depart="65.60" from="E0102" to="E0031"/>
    <trip id="random_trip_83" depart="66.40" from="E0054" to="E0090"/>
    <trip id="random_trip_84" depart="67.20" from="E0053" to="E0045"/>
    <trip id="random_trip_85" depart="68.00" from="E0106" to="E0083"/>
    <trip id="random_trip_86" depart="68.80" from="E0078" to="E0096"/>
    <trip id="random_trip_87" depart="69.60" from="E0099" to="E0048"/>
    <trip id="random_trip_88" depart="70.40" from="E0043" to="E0075"/>
    <trip id="random_trip_89" depart="71.20" from="E0076" to="E0077"/>
    <trip id="random_trip_90" depart="72.00" from="E0093" to="E0090"/>
    <trip id="random_trip_91" depart="72.80" from="E0111" to="E0041"/>
    <trip id="random_trip_92" depart="73.60" from="E0074" to="E0062"/>
    <trip id="random_trip_93" depart="74.40" from="E0102" to="E0053"/>
    <trip id="random_trip_94" depart="75.20" from="E0048" to="E0076"/>
    <trip id="random_trip_95" depart="76.00" from="E0075" to="E0056"/>
    <trip id="random_trip_96" depart="76.80" from="E0054" to="E0105"/>
    <trip id="random_trip_97" depart="77.60" from="E0077" to="E0102"/>
    <trip id="random_trip_98" depart="78.40" from="E0082" to="E0023"/>
    <trip id="random_trip_99" depart="79.20" from="E0111" to="E0101"/>
    <trip id="random_trip_100" depart="80.00" from="E0109" to="E0106"/>
    <trip id="random_trip_101" depart="80.80" from="E0102" to="E0046"/>
    <trip id="random_trip_102" depart="81.60" from="E0079" to="E0051"/>
    <trip id="random_trip_103" depart="82.40" from="E0074" to="E0031"/>
    <trip id="random_trip_104" depart="83.20" from="E0072" to="E0111"/>
    <trip id="random_trip_105" depart="84.00" from="E0056" to="E0096"/>
    <trip id="random_trip_106" depart="84.80" from="E0077" to="E0075"/>
    <trip id="random_trip_107" depart="85.60" from="E0108" to="E0111"/>
    <trip id="random_trip_108" depart="86.40" from="E0082" to="E0093"/>
    <trip id="random_trip_109" depart="87.20" from="E0047" to="E0058"/>
    <trip id="random_trip_110" depart="88.00" from="E0109" to="E0083"/>
    <trip id="random_trip_111" depart="88.80" from="E0082" to="E0094"/>
    <trip id="random_trip_112" depart="89.60" from="E0031" to="E0083"/>
    <trip id="random_trip_113" depart="90.40" from="E0080" to="E0102"/>
    <trip id="random_trip_114" depart="91.20" from="E0047" to="E0108"/>
    <trip id="random_trip_115" depart="92.00" from="E0041" to="E0047"/>
    <trip id="random_trip_116" depart="92.80" from="E0084" to="E0090"/>
    <trip id="random_trip_117" depart="93.60" from="E0054" to="E0043"/>
    <trip id="random_trip_118" depart="94.40" from="E0104" to="E0053"/>
    <trip id="random_trip_119" depart="95.20" from="E0084" to="E0085"/>
    <trip id="random_trip_120" depart="96.00" from="E0075" to="E0083"/>
    <trip id="random_trip_121" depart="96.80" from="E0081" to="E0106"/>
    <trip id="random_trip_122" depart="97.60" from="E0052" to="E0092"/>
    <trip id="random_trip_123" depart="98.40" from="E0054" to="E0072"/>
    <trip id="random_trip_124" depart="99.20" from="E0090" to="E0058"/>
    <trip id="random_trip_125" depart="100.00" from="E0062" to="E0094"/>
    <trip id="random_trip_126" depart="100.80" from="E0039" to="E0077"/>
    <trip id="random_trip_127" depart="101.60" from="E0111" to="E0111"/>
    <trip id="random_trip_128" depart="102.40" from="E0039" to="E0051"/>
    <trip id="random_trip_129" depart="103.20" from="E0056" to="E0106"/>
    <trip id="random_trip_130" depart="104.00" from="E0103" to="E0103"/>
    <trip id="random_trip_131" depart="104.80" from="E0072" to="E0046"/>
    <trip id="random_trip_132" depart="105.60" from="E0101" to="E0092"/>
    <trip id="random_trip_133" depart="106.40" from="E0085" to="E0111"/>
    <trip id="random_trip_134" depart="107.20" from="E0090" to="E0011"/>
    <trip id="random_trip_135" depart="108.00" from="E0100" to="E0058"/>
    <trip id="random_trip_136" depart="108.80" from="E0090" to="E0106"/>
    <trip id="random_trip_137" depart="109.60" from="E0045" to="E0043"/>
    <trip id="random_trip_138" depart="110.40" from="E0043" to="E0082"/>
    <trip id="random_trip_139" depart="111.20" from="E0058" to="E0085"/>
    <trip id="random_trip_140" depart="112.00" from="E0093" to="E0048"/>
    <trip id="random_trip_141" depart="112.80" from="E0087" to="E0053"/>
    <trip id="random_trip_142" depart="113.60" from="E0079" to="E0104"/>
    <trip id="random_trip_143" depart="114.40" from="E0101" to="E0039"/>
    <trip id="random_trip_144" depart="115.20" from="E0076" to="E0056"/>
    <trip id="random_trip_145" depart="116.00" from="E0011" to="E0095"/>
    <trip id="random_trip_146" depart="116.80" from="E0088" to="E0053"/>
    <trip id="random_trip_147" depart="117.60" from="E0094" to="E0082"/>
    <trip id="random_trip_148" depart="118.40" from="E0076" to="E0011"/>
    <trip id="random_trip_149" depart="119.20" from="E0039" to="E0103"/>
    <trip id="random_trip_150" depart="120.00" from="E0105" to="E0081"/>
    <trip id="random_trip_151" depart="120.80" from="E0101" to="E0083"/>
    <trip id="random_trip_152" depart="121.60" from="E0046" to="E0043"/>
    <trip id="random_trip_153" depart="122.40" from="E0062" to="E0104"/>
    <trip id="random_trip_154" depart="123.20" from="E0099" to="E0102"/>
    <trip id="random_trip_155" depart="124.00" from="E0104" to="E0051"/>
    <trip id="random_trip_156" depart="124.80" from="E0054" to="E0041"/>
    <trip id="random_trip_157" depart="125.60" from="E0096" to="E0103"/>
    <trip id="random_trip_158" depart="126.40" from="E0075" to="E0085"/>
    <trip id="random_trip_159" depart="127.20" from="E0047" to="E0106"/>
    <trip id="random_trip_160" depart="128.00" from="E0102" to="E0109"/>
    <trip id="random_trip_161" depart="128.80" from="E0100" to="E0103"/>
    <trip id="random_trip_162" depart="129.60" from="E0013" to="E0094"/>
    <trip id="random_trip_163" depart="130.40" from="E0066" to="E0106"/>
    <trip id="random_trip_164" depart="131.20" from="E0099" to="E0102"/>
    <trip id="random_trip_165" depart="132.00" from="E0100" to="E0056"/>
    <trip id="random_trip_166" depart="132.80" from="E0096" to="E0041"/>
    <trip id="random_trip_167" depart="133.60" from="E0103" to="E0102"/>
    <trip id="random_trip_168" depart="134.40" from="E0053" to="E0100"/>
    <trip id="random_trip_169" depart="135.20" from="E0077" to="E0060"/>
    <trip id="random_trip_170" depart="136.00" from="E0099" to="E0052"/>
    <trip id="random_trip_171" depart="136.80" from="E0013" to="E0048"/>
    <trip id="random_trip_172" depart="137.60" from="E0066" to="E0102"/>
    <trip id="random_trip_173" depart="138.40" from="E0109" to="E0056"/>
    <trip id="random_trip_174" depart="139.20" from="E0088" to="E0074"/>
    <trip id="random_trip_175" depart="140.00" from="E0111" to="E0081"/>
    <trip id="random_trip_176" depart="140.80" from="E0106" to="E0043"/>
    <trip id="random_trip_177" depart="141.60" from="E0109" to="E0047"/>
    <trip id="random_trip_178" depart="142.40" from="E0109" to="E0056"/>
    <trip id="random_trip_179" depart="143.20" from="E0043" to="E0076"/>
    <trip id="random_trip_180" depart="144.00" from="E0093" to="E0060"/>
    <trip id="random_trip_181" depart="144.80" from="E0085" to="E0080"/>
    <trip id="random_trip_182" depart="145.60" from="E0074" to="E0083"/>
    <trip id="random_trip_183" depart="146.40" from="E0056" to="E0092"/>
    <trip id="random_trip_184" depart="147.20" from="E0011" to="E0106"/>
    <trip id="random_trip_185" depart="148.00" from="E0081" to="E0093"/>
    <trip id="random_trip_186" depart="148.80" from="E0094" to="E0090"/>
    <trip id="random_trip_187" depart="149.60" from="E0068" to="E0031"/>
    <trip id="random_trip_188" depart="150.40" from="E0090" to="E0062"/>
    <trip id="random_trip_189" depart="151.20" from="E0062" to="E0101"/>
    <trip id="random_trip_190" depart="152.00" from="E0093" to="E0058"/>
    <trip id="random_trip_191" depart="152.80" from="E0062" to="E0074"/>
    <trip id="random_trip_192" depart="153.60" from="E0074" to="E0058"/>
    <trip id="random_trip_193" depart="154.40" from="E0045" to="E0075"/>
    <trip id="random_trip_194" depart="155.20" from="E0106" to="E0090"/>
    <trip id="random_trip_195" depart="156.00" from="E0104" to="E0085"/>
    <trip id="random_trip_196" depart="156.80" from="E0060" to="E0082"/>
    <trip id="random_trip_197" depart="157.60" from="E0011" to="E0058"/>
    <trip id="random_trip_198" depart="158.40" from="E0076" to="E0083"/>
    <trip id="random_trip_199" depart="159.20" from="E0090" to="E0077"/>
    <trip id="random_trip_200" depart="160.00" from="E0076" to="E0051"/>
    <trip id="random_trip_201" depart="160.80" from="E0078" to="E0104"/>
    <trip id="random_trip_202" depart="161.60" from="E0099" to="E0046"/>
    <trip id="random_trip_203" depart="162.40" from="E0041" to="E0080"/>
    <trip id="random_trip_204" depart="163.20" from="E0087" to="E0062"/>
    <trip id="random_trip_205" depart="164.00" from="E0100" to="E0094"/>
    <trip id="random_trip_206" depart="164.80" from="E0090" to="E0051"/>
    <trip id="random_trip_207" depart="165.60" from="E0052" to="E0013"/>
    <trip id="random_trip_208" depart="166.40" from="E0054" to="E0078"/>
    <trip id="random_trip_209" depart="167.20" from="E0102" to="E0031"/>
    <trip id="random_trip_210" depart="168.00" from="E0075" to="E0087"/>
    <trip id="random_trip_211" depart="168.80" from="E0052" to="E0091"/>
    <trip id="random_trip_212" depart="169.60" from="E0079" to="E0052"/>
    <trip id="random_trip_213" depart="170.40" from="E0090" to="E0011"/>
    <trip id="random_trip_214" depart="171.20" from="E0095" to="E0095"/>
    <trip id="random_trip_215" depart="172.00" from="E0043" to="E0075"/>
    <trip id="random_trip_216" depart="172.80" from="E0048" to="E0108"/>
    <trip id="random_trip_217" depart="173.60" from="E0080" to="E0023"/>
    <trip id="random_trip_218" depart="174.40" from="E0054" to="E0101"/>
    <trip id="random_trip_219" depart="175.20" from="E0077" to="E0099"/>
    <trip id="random_trip_220" depart="176.00" from="E0090" to="E0111"/>
    <trip id="random_trip_221" depart="176.80" from="E0084" to="E0108"/>
    <trip id="random_trip_222" depart="177.60" from="E0104" to="E0085"/>
    <trip id="random_trip_223" depart="178.40" from="E0093" to="E0079"/>
    <trip id="random_trip_224" depart="179.20" from="E0101" to="E0082"/>
    <trip id="random_trip_225" depart="180.00" from="E0104" to="E0094"/>
    <trip id="random_trip_226" depart="180.80" from="E0078" to="E0053"/>
    <trip id="random_trip_227" depart="181.60" from="E0054" to="E0087"/>
    <trip id="random_trip_228" depart="182.40" from="E0095" to="E0080"/>
    <trip id="random_trip_229" depart="183.20" from="E0087" to="E0056"/>
    <trip id="random_trip_230" depart="184.00" from="E0041" to="E0058"/>
    <trip id="random_trip_231" depart="184.80" from="E0058" to="E0060"/>
    <trip id="random_trip_232" depart="185.60" from="E0082" to="E0045"/>
    <trip id="random_trip_233" depart="186.40" from="E0054" to="E0091"/>
    <trip id="random_trip_234" depart="187.20" from="E0092" to="E0031"/>
    <trip id="random_trip_235" depart="188.00" from="E0075" to="E0081"/>
    <trip id="random_trip_236" depart="188.80" from="E0075" to="E0048"/>
    <trip id="random_trip_237" depart="189.60" from="E0075" to="E0104"/>
    <trip id="random_trip_238" depart="190.40" from="E0084" to="E0091"/>
    <trip id="random_trip_239" depart="191.20" from="E0102" to="E0095"/>
    <trip id="random_trip_240" depart="192.00" from="E0072" to="E0011"/>
    <trip id="random_trip_241" depart="192.80" from="E0068" to="E0094"/>
    <trip id="random_trip_242" depart="193.60" from="E0102" to="E0108"/>
    <trip id="random_trip_243" depart="194.40" from="E0075" to="E0094"/>
    <trip id="random_trip_244" depart="195.20" from="E0082" to="E0084"/>
    <trip id="random_trip_245" depart="196.00" from="E0053" to="E0051"/>
    <trip id="random_trip_246" depart="196.80" from="E0076" to="E0013"/>
    <trip id="random_trip_247" depart="197.60" from="E0066" to="E0090"/>
    <trip id="random_trip_248" depart="198.40" from="E0075" to="E0046"/>
    <trip id="random_trip_249" depart="199.20" from="E0078" to="E0043"/>
    <trip id="random_trip_250" depart="200.00" from="E0087" to="E0013"/>
    <trip id="random_trip_251" depart="200.80" from="E0074" to="E0082"/>
    <trip id="random_trip_252" depart="201.60" from="E0013" to="E0088"/>
    <trip id="random_trip_253" depart="202.40" from="E0046" to="E0077"/>
    <trip id="random_trip_254" depart="203.20" from="E0031" to="E0072"/>
    <trip id="random_trip_255" depart="204.00" from="E0053" to="E0062"/>
    <trip id="random_trip_256" depart="204.80" from="E0095" to="E0072"/>
    <trip id="random_trip_257" depart="205.60" from="E0095" to="E0101"/>
    <trip id="random_trip_258" depart="206.40" from="E0056" to="E0039"/>
    <trip id="random_trip_259" depart="207.20" from="E0013" to="E0081"/>
    <trip id="random_trip_260" depart="208.00" from="E0111" to="E0066"/>
    <trip id="random_trip_261" depart="208.80" from="E0088" to="E0096"/>
    <trip id="random_trip_262" depart="209.60" from="E0088" to="E0094"/>
    <trip id="random_trip_263" depart="210.40" from="E0108" to="E0048"/>
    <trip id="random_trip_264" depart="211.20" from="E0013" to="E0046"/>
    <trip id="random_trip_265" depart="212.00" from="E0045" to="E0090"/>
    <trip id="random_trip_266" depart="212.80" from="E0083" to="E0051"/>
    <trip id="random_trip_267" depart="213.60" from="E0092" to="E0095"/>
    <trip id="random_trip_268" depart="214.40" from="E0047" to="E0085"/>
    <trip id="random_trip_269" depart="215.20" from="E0094" to="E0043"/>
    <trip id="random_trip_270" depart="216.00" from="E0100" to="E0109"/>
    <trip id="random_trip_271" depart="216.80" from="E0043" to="E0013"/>
    <trip id="random_trip_272" depart="217.60" from="E0062" to="E0090"/>
    <trip id="random_trip_273" depart="218.40" from="E0108" to="E0074"/>
    <trip id="random_trip_274" depart="219.20" from="E0093" to="E0039"/>
    <trip id="random_trip_275" depart="220.00" from="E0091" to="E0087"/>
    <trip id="random_trip_276" depart="220.80" from="E0043" to="E0095"/>
    <trip id="random_trip_277" depart="221.60" from="E0102" to="E0084"/>
    <trip id="random_trip_278" depart="222.40" from="E0045" to="E0111"/>
    <trip id="random_trip_279" depart="223.20" from="E0096" to="E0066"/>
    <trip id="random_trip_280" depart="224.00" from="E0076" to="E0068"/>
    <trip id="random_trip_281" depart="224.80" from="E0080" to="E0066"/>
    <trip id="random_trip_282" depart="225.60" from="E0102" to="E0100"/>
    <trip id="random_trip_283" depart="226.40" from="E0043" to="E0108"/>
    <trip id="random_trip_284" depart="227.20" from="E0088" to="E0100"/>
    <trip id="random_trip_285" depart="228.00" from="E0092" to="E0076"/>
    <trip id="random_trip_286" depart="228.80" from="E0094" to="E0109"/>
    <trip id="random_trip_287" depart="229.60" from="E0058" to="E0099"/>
    <trip id="random_trip_288" depart="230.40" from="E0081" to="E0078"/>
    <trip id="random_trip_289" depart="231.20" from="E0076" to="E0093"/>
    <trip id="random_trip_290" depart="232.00" from="E0056" to="E0102"/>
    <trip id="random_trip_291" depart="232.80" from="E0101" to="E0039"/>
    <trip id="random_trip_292" depart="233.60" from="E0103" to="E0052"/>
    <trip id="random_trip_293" depart="234.40" from="E0078" to="E0085"/>
    <trip id="random_trip_294" depart="235.20" from="E0072" to="E0013"/>
    <trip id="random_trip_295" depart="236.00" from="E0102" to="E0047"/>
    <trip id="random_trip_296" depart="236.80" from="E0053" to="E0099"/>
    <trip id="random_trip_297" depart="237.60" from="E0066" to="E0103"/>
    <trip id="random_trip_298" depart="238.40" from="E0092" to="E0056"/>
    <trip id="random_trip_299" depart="239.20" from="E0011" to="E0108"/>
    <trip id="random_trip_300" depart="240.00" from="E0041" to="E0093"/>
    <trip id="random_trip_301" depart="240.80" from="E0079" to="E0095"/>
    <trip id="random_trip_302" depart="241.60" from="E0091" to="E0088"/>
    <trip id="random_trip_303" depart="242.40" from="E0079" to="E0099"/>
    <trip id="random_trip_304" depart="243.20" from="E0041" to="E0051"/>
    <trip id="random_trip_305" depart="244.00" from="E0091" to="E0060"/>
    <trip id="random_trip_306" depart="244.80" from="E0084" to="E0078"/>
    <trip id="random_trip_307" depart="245.60" from="E0081" to="E0075"/>
    <trip id="random_trip_308" depart="246.40" from="E0094" to="E0062"/>
    <trip id="random_trip_309" depart="247.20" from="E0092" to="E0056"/>
    <trip id="random_trip_310" depart="248.00" from="E0056" to="E0043"/>
    <trip id="random_trip_311" depart="248.80" from="E0052" to="E0043"/>
    <trip id="random_trip_312" depart="249.60" from="E0081" to="E0095"/>
    <trip id="random_trip_313" depart="250.40" from="E0048" to="E0051"/>
    <trip id="random_trip_314" depart="251.20" from="E0079" to="E0093"/>
    <trip id="random_trip_315" depart="252.00" from="E0109" to="E0080"/>
    <trip id="random_trip_316" depart="252.80" from="E0058" to="E0041"/>
    <trip id="random_trip_317" depart="253.60" from="E0052" to="E0052"/>
    <trip id="random_trip_318" depart="254.40" from="E0048" to="E0011"/>
    <trip id="random_trip_319" depart="255.20" from="E0081" to="E0056"/>
    <trip id="random_trip_320" depart="256.00" from="E0109" to="E0082"/>
    <trip id="random_trip_321" depart="256.80" from="E0092" to="E0043"/>
    <trip id="random_trip_322" depart="257.60" from="E0103" to="E0079"/>
    <trip id="random_trip_323" depart="258.40" from="E0103" to="E0083"/>
    <trip id="random_trip_324" depart="259.20" from="E0078" to="E0076"/>
    <trip id="random_trip_325" depart="260.00" from="E0048" to="E0023"/>
    <trip id="random_trip_326" depart="260.80" from="E0106" to="E0078"/>
    <trip id="random_trip_327" depart="261.60" from="E0100" to="E0074"/>
    <trip id="random_trip_328" depart="262.40" from="E0039" to="E0087"/>
    <trip id="random_trip_329" depart="263.20" from="E0031" to="E0045"/>
    <trip id="random_trip_330" depart="264.00" from="E0083" to="E0060"/>
    <trip id="random_trip_331" depart="264.80" from="E0111" to="E0043"/>
    <trip id="random_trip_332" depart="265.60" from="E0095" to="E0085"/>
    <trip id="random_trip_333" depart="266.40" from="E0099" to="E0051"/>
    <trip id="random_trip_334" depart="267.20" from="E0081" to="E0076"/>
    <trip id="random_trip_335" depart="268.00" from="E0077" to="E0102"/>
    <trip id="random_trip_336" depart="268.80" from="E0111" to="E0060"/>
    <trip id="random_trip_337" depart="269.60" from="E0087" to="E0085"/>
    <trip id="random_trip_338" depart="270.40" from="E0094" to="E0108"/>
    <trip id="random_trip_339" depart="271.20" from="E0052" to="E0051"/>
    <trip id="random_trip_340" depart="272.00" from="E0090" to="E0046"/>
    <trip id="random_trip_341" depart="272.80" from="E0048" to="E0031"/>
    <trip id="random_trip_342" depart="273.60" from="E0011" to="E0076"/>
    <trip id="random_trip_343" depart="274.40" from="E0084" to="E0058"/>
    <trip id="random_trip_344" depart="275.20" from="E0054" to="E0092"/>
    <trip id="random_trip_345" depart="276.00" from="E0092" to="E0077"/>
    <trip id="random_trip_346" depart="276.80" from="E0091" to="E0105"/>
    <trip id="random_trip_347" depart="277.60" from="E0096" to="E0087"/>
    <trip id="random_trip_348" depart="278.40" from="E0090" to="E0106"/>
    <trip id="random_trip_349" depart="279.20" from="E0076" to="E0081"/>
    <trip id="random_trip_350" depart="280.00" from="E0088" to="E0105"/>
    <trip id="random_trip_351" depart="280.80" from="E0100" to="E0031"/>
    <trip id="random_trip_352" depart="281.60" from="E0047" to="E0060"/>
    <trip id="random_trip_353" depart="282.40" from="E0094" to="E0083"/>
    <trip id="random_trip_354" depart="283.20" from="E0060" to="E0043"/>
    <trip id="random_trip_355" depart="284.00" from="E0091" to="E0092"/>
    <trip id="random_trip_356" depart="284.80" from="E0108" to="E0079"/>
    <trip id="random_trip_357" depart="285.60" from="E0079" to="E0039"/>
    <trip id="random_trip_358" depart="286.40" from="E0031" to="E0075"/>
    <trip id="random_trip_359" depart="287.20" from="E0062" to="E0053"/>
    <trip id="random_trip_360" depart="288.00" from="E0041" to="E0108"/>
    <trip id="random_trip_361" depart="288.80" from="E0101" to="E0083"/>
    <trip id="random_trip_362" depart="289.60" from="E0108" to="E0111"/>
    <trip id="random_trip_363" depart="290.40" from="E0090" to="E0056"/>
    <trip id="random_trip_364" depart="291.20" from="E0031" to="E0095"/>
    <trip id="random_trip_365" depart="292.00" from="E0078" to="E0088"/>
    <trip id="random_trip_366" depart="292.80" from="E0105" to="E0047"/>
    <trip id="random_trip_367" depart="293.60" from="E0084" to="E0087"/>
    <trip id="random_trip_368" depart="294.40" from="E0079" to="E0039"/>
    <trip id="random_trip_369" depart="295.20" from="E0068" to="E0062"/>
    <trip id="random_trip_370" depart="296.00" from="E0090" to="E0102"/>
    <trip id="random_trip_371" depart="296.80" from="E0066" to="E0091"/>
    <trip id="random_trip_372" depart="297.60" from="E0058" to="E0108"/>
    <trip id="random_trip_373" depart="298.40" from="E0100" to="E0082"/>
    <trip id="random_trip_374" depart="299.20" from="E0077" to="E0060"/>
    <trip id="random_trip_375" depart="300.00" from="E0062" to="E0109"/>
    <trip id="random_trip_376" depart="300.80" from="E0075" to="E0080"/>
    <trip id="random_trip_377" depart="301.60" from="E0111" to="E0088"/>
    <trip id="random_trip_378" depart="302.40" from="E0082" to="E0074"/>
    <trip id="random_trip_379" depart="303.20" from="E0048" to="E0068"/>
    <trip id="random_trip_380" depart="304.00" from="E0095" to="E0087"/>
    <trip id="random_trip_381" depart="304.80" from="E0095" to="E0048"/>
    <trip id="random_trip_382" depart="305.60" from="E0082" to="E0106"/>
    <trip id="random_trip_383" depart="306.40" from="E0076" to="E0092"/>
    <trip id="random_trip_384" depart="307.20" from="E0045" to="E0109"/>
    <trip id="random_trip_385" depart="308.00" from="E0085" to="E0052"/>
    <trip id="random_trip_386" depart="308.80" from="E0047" to="E0082"/>
    <trip id="random_trip_387" depart="309.60" from="E0082" to="E0039"/>
    <trip id="random_trip_388" depart="310.40" from="E0111" to="E0105"/>
    <trip id="random_trip_389" depart="311.20" from="E0077" to="E0043"/>
    <trip id="random_trip_390" depart="312.00" from="E0101" to="E0079"/>
    <trip id="random_trip_391" depart="312.80" from="E0093" to="E0079"/>
    <trip id="random_trip_392" depart="313.60" from="E0058" to="E0101"/>
    <trip id="random_trip_393" depart="314.40" from="E0109" to="E0052"/>
    <trip id="random_trip_394" depart="315.20" from="E0082" to="E0072"/>
    <trip id="random_trip_395" depart="316.00" from="E0105" to="E0079"/>
    <trip id="random_trip_396" depart="316.80" from="E0103" to="E0102"/>
    <trip id="random_trip_397" depart="317.60" from="E0058" to="E0096"/>
    <trip id="random_trip_398" depart="318.40" from="E0075" to="E0106"/>
    <trip id="random_trip_399" depart="319.20" from="E0080" to="E0100"/>
    <trip id="random_trip_400" depart="320.00" from="E0058" to="E0058"/>
    <trip id="random_trip_401" depart="320.80" from="E0084" to="E0111"/>
    <trip id="random_trip_402" depart="321.60" from="E0079" to="E0045"/>
    <trip id="random_trip_403" depart="322.40" from="E0082" to="E0066"/>
    <trip id="random_trip_404" depart="323.20" from="E0082" to="E0081"/>
    <trip id="random_trip_405" depart="324.00" from="E0077" to="E0062"/>