<?xml version="1.0" encoding="UTF-8"?>

<!-- generated on 2023-06-27 20:02:38 by Eclipse SUMO netconvert Version 1.16.0
<configuration xmlns:xsi="http://www.w3.org/2001/XMLSchema-instance" xsi:noNamespaceSchemaLocation="http://sumo.dlr.de/xsd/netconvertConfiguration.xsd">

    <input>
        <node-files value="data/simulationConfigurations/optimized\optimized.nod.xml"/>
        <edge-files value="data/simulationConfigurations/optimized\optimized.edg.xml"/>
    </input>

    <output>
        <output-file value="data/simulationConfigurations/optimized\optimized.net.xml"/>
    </output>

</configuration>
-->

<net version="1.16" junctionCornerDetail="5" limitTurnSpeed="5.50" xmlns:xsi="http://www.w3.org/2001/XMLSchema-instance" xsi:noNamespaceSchemaLocation="http://sumo.dlr.de/xsd/net_file.xsd">

    <location netOffset="-66.08,-39.39" convBoundary="0.00,0.00,1127.97,1211.14" origBoundary="66.08,39.39,1194.05,1250.52" projParameter="!"/>

    <edge id=":V0001_0" function="internal">
        <lane id=":V0001_0_0" index="0" speed="7.10" length="22.42" shape="253.84,1033.85 256.31,1025.95 256.48,1023.02 254.35,1025.05 249.92,1032.04"/>
        <lane id=":V0001_0_1" index="1" speed="4.01" length="5.70" shape="253.84,1033.85 254.47,1031.84 254.51,1031.09 253.97,1031.61 252.84,1033.39"/>
    </edge>
    <edge id=":V0001_2" function="internal">
        <lane id=":V0001_2_0" index="0" speed="7.93" length="15.47" shape="253.84,1033.85 253.88,1036.30 255.81,1038.42 259.65,1040.20 265.39,1041.64"/>
        <lane id=":V0001_2_1" index="1" speed="8.49" length="17.91" shape="253.84,1033.85 253.44,1037.64 255.13,1040.73 258.91,1043.11 264.79,1044.79"/>
    </edge>
    <edge id=":V0001_4" function="internal">
        <lane id=":V0001_4_0" index="0" speed="13.68" length="19.84" shape="253.84,1033.85 251.29,1040.41 248.77,1045.38 246.27,1048.75 243.81,1050.52"/>
        <lane id=":V0001_4_1" index="1" speed="13.13" length="18.23" shape="253.84,1033.85 251.73,1038.73 249.17,1042.64 246.13,1045.58 242.63,1047.54"/>
    </edge>
    <edge id=":V0001_6" function="internal">
        <lane id=":V0001_6_0" index="0" speed="10.14" length="43.15" shape="253.84,1033.85 250.26,1037.11 246.81,1029.50 243.74,1015.63 241.30,1000.07"/>
    </edge>
    <edge id=":V0001_7" function="internal">
        <lane id=":V0001_7_0" index="0" speed="10.57" length="50.17" shape="253.84,1033.85 239.74,1027.44 234.13,1019.65 236.99,1010.48 248.33,999.94"/>
    </edge>
    <edge id=":V0002_0" function="internal">
        <lane id=":V0002_0_0" index="0" speed="5.47" length="9.84" shape="1107.36,1205.58 1110.51,1205.82 1112.09,1205.07 1112.10,1203.31 1110.55,1200.54"/>
        <lane id=":V0002_0_1" index="1" speed="6.54" length="14.77" shape="1107.36,1205.58 1112.38,1206.03 1115.02,1205.04 1115.28,1202.59 1113.15,1198.68"/>
        <lane id=":V0002_0_2" index="2" speed="7.46" length="19.72" shape="1107.36,1205.58 1114.25,1206.24 1117.95,1205.01 1118.45,1201.86 1115.75,1196.82"/>
    </edge>
    <edge id=":V0002_3" function="internal">
        <lane id=":V0002_3_0" index="0" speed="8.34" length="22.49" shape="1107.36,1205.58 1114.84,1206.19 1119.32,1204.60 1120.80,1200.82 1119.29,1194.83"/>
    </edge>
    <edge id=":V0003_0" function="internal">
        <lane id=":V0003_0_0" index="0" speed="6.07" length="16.08" shape="618.23,26.13 620.73,31.62 621.95,33.36 621.90,31.35 620.57,25.59"/>
    </edge>
    <edge id=":V0003_1" function="internal">
        <lane id=":V0003_1_0" index="0" speed="8.14" length="24.07" shape="618.23,26.13 614.60,19.83 611.03,18.14 607.51,21.06 604.06,28.58"/>
    </edge>
    <edge id=":V0003_2" function="internal">
        <lane id=":V0003_2_0" index="0" speed="4.86" length="9.62" shape="621.40,25.39 622.16,22.53 623.46,21.22 625.28,21.47 627.63,23.28"/>
    </edge>
    <edge id=":V0003_3" function="internal">
        <lane id=":V0003_3_0" index="0" speed="13.95" length="50.22" shape="590.15,11.39 602.46,4.15 612.74,3.68 621.79,9.63 630.40,21.68"/>
    </edge>
    <edge id=":V0003_4" function="internal">
        <lane id=":V0003_4_0" index="0" speed="11.76" length="42.02" shape="592.13,13.90 602.55,8.23 611.63,8.33 618.85,13.95 623.68,24.86"/>
    </edge>
    <edge id=":V0003_5" function="internal">
        <lane id=":V0003_5_0" index="0" speed="8.07" length="25.54" shape="592.13,13.90 597.96,12.05 602.49,15.08 604.81,21.19 604.06,28.58"/>
    </edge>
    <edge id=":V0003_6" function="internal">
        <lane id=":V0003_6_0" index="0" speed="12.66" length="50.16" shape="590.84,23.77 600.60,13.02 611.04,8.69 621.28,11.39 630.40,21.68"/>
        <lane id=":V0003_6_1" index="1" speed="11.71" length="42.72" shape="593.93,24.89 602.24,15.76 611.14,12.14 619.86,14.49 627.63,23.28"/>
    </edge>
    <edge id=":V0003_8" function="internal">
        <lane id=":V0003_8_0" index="0" speed="9.92" length="34.96" shape="593.93,24.89 601.02,17.78 608.93,15.23 616.00,17.69 620.57,25.59"/>
    </edge>
    <edge id=":V0003_9" function="internal">
        <lane id=":V0003_9_0" index="0" speed="6.11" length="15.74" shape="593.93,24.89 597.85,22.02 600.84,21.67 602.91,23.86 604.06,28.58"/>
    </edge>
    <edge id=":V0004_0" function="internal">
        <lane id=":V0004_0_0" index="0" speed="15.00" length="55.61" shape="134.03,237.43 131.44,214.10 130.93,197.36 132.52,187.21 136.19,183.64"/>
        <lane id=":V0004_0_1" index="1" speed="14.27" length="50.25" shape="137.09,236.21 134.54,214.74 133.57,199.35 134.18,190.05 136.37,186.84"/>
    </edge>
    <edge id=":V0004_2" function="internal">
        <lane id=":V0004_2_0" index="0" speed="5.99" length="14.68" shape="162.60,225.02 158.70,221.40 156.79,220.60 156.87,222.62 158.93,227.46"/>
        <lane id=":V0004_2_1" index="1" speed="7.63" length="25.09" shape="162.60,225.02 155.83,218.70 152.46,217.20 152.50,220.52 155.95,228.65"/>
        <lane id=":V0004_2_2" index="2" speed="8.98" length="35.51" shape="162.60,225.02 152.96,216.01 148.14,213.81 148.14,218.42 152.97,229.84"/>
    </edge>
    <edge id=":V0004_5" function="internal">
        <lane id=":V0004_5_0" index="0" speed="11.73" length="48.94" shape="162.60,225.02 149.74,211.33 139.56,199.19 134.35,190.41 136.37,186.84"/>
        <lane id=":V0004_5_1" index="1" speed="11.28" length="45.11" shape="162.60,225.02 150.53,212.27 140.91,201.14 135.62,193.21 136.55,190.03"/>
    </edge>
    <edge id=":V0005_0" function="internal">
        <lane id=":V0005_0_0" index="0" speed="17.12" length="15.61" shape="260.19,533.47 260.86,529.76 262.42,526.16 264.48,522.70 266.63,519.46"/>
    </edge>
    <edge id=":V0005_1" function="internal">
        <lane id=":V0005_1_0" index="0" speed="6.67" length="16.67" shape="260.19,533.47 260.82,527.67 262.35,525.21 264.77,526.09 268.09,530.30"/>
        <lane id=":V0005_1_1" index="1" speed="5.48" length="10.64" shape="260.19,533.47 260.60,529.92 261.61,528.50 263.20,529.20 265.39,532.03"/>
    </edge>
    <edge id=":V0006_0" function="internal">
        <lane id=":V0006_0_0" index="0" speed="5.94" length="9.09" shape="857.39,919.16 858.39,921.58 859.85,922.83 861.78,922.92 864.17,921.84"/>
        <lane id=":V0006_0_1" index="1" speed="6.81" length="12.40" shape="857.39,919.16 858.81,922.97 860.70,925.14 863.06,925.66 865.88,924.54"/>
    </edge>
    <edge id=":V0006_2" function="internal">
        <lane id=":V0006_2_0" index="0" speed="11.96" length="33.35" shape="857.39,919.16 858.60,928.75 856.75,936.26 851.84,941.69 843.88,945.03"/>
        <lane id=":V0006_2_1" index="1" speed="11.02" length="28.14" shape="854.29,919.96 855.34,928.12 853.83,934.51 849.76,939.11 843.12,941.92"/>
        <lane id=":V0006_2_2" index="2" speed="9.99" length="22.94" shape="851.19,920.76 852.08,927.50 850.91,932.76 847.67,936.53 842.37,938.81"/>
    </edge>
    <edge id=":V0006_5" function="internal">
        <lane id=":V0006_5_0" index="0" speed="6.83" length="18.17" shape="851.19,920.76 851.63,926.38 850.37,931.28 847.79,933.81 844.24,932.33"/>
        <lane id=":V0006_5_1" index="1" speed="7.02" length="19.26" shape="851.19,920.76 852.76,928.56 852.51,932.72 850.43,933.23 846.54,930.10"/>
    </edge>
    <edge id=":V0007_0" function="internal">
        <lane id=":V0007_0_0" index="0" speed="9.46" length="31.99" shape="22.24,1138.23 12.13,1141.77 2.98,1143.64 -2.85,1142.34 -2.96,1136.38"/>
        <lane id=":V0007_0_1" index="1" speed="8.26" length="23.99" shape="21.06,1135.26 12.82,1138.29 5.53,1140.28 0.75,1140.34 0.01,1137.57"/>
    </edge>
    <edge id=":V0007_2" function="internal">
        <lane id=":V0007_2_0" index="0" speed="8.44" length="29.56" shape="18.63,1131.37 10.77,1137.26 2.70,1141.27 -2.80,1141.58 -2.96,1136.38"/>
        <lane id=":V0007_2_1" index="1" speed="7.60" length="23.59" shape="16.47,1129.00 10.21,1134.47 4.10,1139.09 0.06,1140.80 0.01,1137.57"/>
    </edge>
    <edge id=":V0008_0" function="internal">
        <lane id=":V0008_0_0" index="0" speed="15.00" length="67.59" shape="393.30,707.76 404.86,732.84 412.04,751.75 414.84,764.46 413.26,771.00"/>
        <lane id=":V0008_0_1" index="1" speed="15.00" length="64.10" shape="390.42,709.16 401.61,733.22 408.73,751.21 411.78,763.12 410.75,768.96"/>
    </edge>
    <edge id=":V0008_2" function="internal">
        <lane id=":V0008_2_0" index="0" speed="16.00" length="66.23" shape="384.36,712.35 399.03,736.16 408.74,753.87 413.48,765.48 413.26,771.00"/>
        <lane id=":V0008_2_1" index="1" speed="16.00" length="62.58" shape="381.66,714.07 395.80,736.79 405.36,753.52 410.35,764.24 410.75,768.96"/>
    </edge>
    <edge id=":V0008_4" function="internal">
        <lane id=":V0008_4_0" index="0" speed="6.50" length="29.88" shape="406.65,765.63 401.63,775.21 401.05,779.30 404.93,777.89 413.26,771.00"/>
        <lane id=":V0008_4_1" index="1" speed="4.44" length="7.17" shape="409.16,767.67 407.96,769.97 407.82,770.95 408.75,770.61 410.75,768.96"/>
    </edge>
    <edge id=":V0010_0" function="internal">
        <lane id=":V0010_0_0" index="0" speed="7.85" length="13.12" shape="388.67,180.90 387.90,178.68 388.54,176.16 390.60,173.33 394.06,170.20"/>
    </edge>
    <edge id=":V0010_1" function="internal">
        <lane id=":V0010_1_0" index="0" speed="12.82" length="11.10" shape="382.42,169.39 385.45,169.43 387.64,169.57 389.64,169.19 392.08,167.68"/>
        <lane id=":V0010_1_1" index="1" speed="13.96" length="11.10" shape="382.60,172.59 386.21,172.58 388.80,172.62 391.16,172.05 394.06,170.20"/>
    </edge>
    <edge id=":V0010_3" function="internal">
        <lane id=":V0010_3_0" index="0" speed="17.00" length="14.98" shape="384.45,181.40 385.92,178.34 387.78,175.78 390.38,173.22 394.06,170.20"/>
    </edge>
    <edge id=":V0011_0" function="internal">
        <lane id=":V0011_0_0" index="0" speed="5.67" length="12.36" shape="370.30,1060.12 366.16,1061.43 364.80,1062.67 366.22,1063.84 370.42,1064.94"/>
    </edge>
    <edge id=":V0011_1" function="internal">
        <lane id=":V0011_1_0" index="0" speed="14.50" length="24.39" shape="347.30,1057.27 354.37,1059.13 360.70,1061.46 366.12,1063.61 370.42,1064.94"/>
    </edge>
    <edge id=":V0012_0" function="internal">
        <lane id=":V0012_0_0" index="0" speed="14.50" length="16.18" shape="976.83,860.24 975.02,857.25 972.69,854.60 970.13,851.40 967.62,846.78"/>
        <lane id=":V0012_0_1" index="1" speed="14.50" length="16.18" shape="976.83,860.24 970.57,845.52"/>
    </edge>
    <edge id=":V0012_2" function="internal">
        <lane id=":V0012_2_0" index="0" speed="6.54" length="8.00" shape="965.47,853.70 967.11,852.31 968.02,850.69 968.19,848.85 967.62,846.78"/>
        <lane id=":V0012_2_1" index="1" speed="8.05" length="12.57" shape="967.19,856.40 969.76,854.22 971.19,851.68 971.45,848.78 970.57,845.52"/>
    </edge>
    <edge id=":V0013_0" function="internal">
        <lane id=":V0013_0_0" index="0" speed="7.00" length="20.23" shape="195.54,664.59 194.52,660.85 192.85,656.72 191.04,651.65 189.65,645.13"/>
        <lane id=":V0013_0_1" index="1" speed="7.00" length="20.23" shape="195.54,664.59 192.82,644.69"/>
    </edge>
    <edge id=":V0013_2" function="internal">
        <lane id=":V0013_2_0" index="0" speed="9.00" length="19.54" shape="195.54,664.59 195.36,660.14 195.78,654.84 196.67,649.60 197.92,645.33"/>
    </edge>
    <edge id=":V0013_3" function="internal">
        <lane id=":V0013_3_0" index="0" speed="13.00" length="18.13" shape="187.46,662.76 189.37,657.77 190.25,654.16 190.28,650.44 189.65,645.13"/>
    </edge>
    <edge id=":V0013_4" function="internal">
        <lane id=":V0013_4_0" index="0" speed="15.00" length="20.08" shape="190.43,663.96 197.92,645.33"/>
    </edge>
    <edge id=":V0014_0" function="internal">
        <lane id=":V0014_0_0" index="0" speed="20.00" length="21.83" shape="258.37,912.44 242.25,927.16"/>
        <lane id=":V0014_0_1" index="1" speed="20.00" length="21.83" shape="256.21,910.08 240.09,924.80"/>
    </edge>
    <edge id=":V0014_2" function="internal">
        <lane id=":V0014_2_0" index="0" speed="5.48" length="9.68" shape="256.21,910.08 253.72,911.88 251.96,912.06 250.95,910.62 250.68,907.55"/>
    </edge>
    <edge id=":V0014_3" function="internal">
        <lane id=":V0014_3_0" index="0" speed="4.94" length="7.56" shape="246.78,934.93 246.71,931.69 246.29,929.70 245.52,928.98 244.41,929.53"/>
    </edge>
    <edge id=":V0014_4" function="internal">
        <lane id=":V0014_4_0" index="0" speed="14.50" length="27.47" shape="249.98,935.01 250.68,907.55"/>
    </edge>
    <edge id=":V0015_0" function="internal">
        <lane id=":V0015_0_0" index="0" speed="5.81" length="13.41" shape="833.37,807.76 830.37,804.05 828.67,803.14 828.28,805.03 829.19,809.72"/>
    </edge>
    <edge id=":V0015_1" function="internal">
        <lane id=":V0015_1_0" index="0" speed="12.50" length="51.16" shape="835.97,805.90 806.20,764.29"/>
    </edge>
    <edge id=":V0015_2" function="internal">
        <lane id=":V0015_2_0" index="0" speed="16.00" length="50.57" shape="813.48,761.55 826.09,810.51"/>
        <lane id=":V0015_2_1" index="1" speed="16.00" length="50.57" shape="810.38,762.34 822.99,811.31"/>
    </edge>
    <edge id=":V0015_4" function="internal">
        <lane id=":V0015_4_0" index="0" speed="5.81" length="4.88" shape="810.38,762.34 811.29,767.03 811.27,767.13"/>
    </edge>
    <edge id=":V0015_5" function="internal">
        <lane id=":V0015_5_0" index="0" speed="5.81" length="8.53" shape="811.27,767.13 810.90,768.92 809.20,768.01 806.20,764.29"/>
    </edge>
    <edge id=":V0016_0" function="internal">
        <lane id=":V0016_0_0" index="0" speed="5.66" length="9.25" shape="278.36,479.51 279.90,481.83 281.54,482.68 283.27,482.05 285.10,479.96"/>
        <lane id=":V0016_0_1" index="1" speed="7.40" length="16.86" shape="275.49,480.92 278.29,485.15 281.27,486.69 284.43,485.55 287.76,481.72"/>
    </edge>
    <edge id=":V0016_2" function="internal">
        <lane id=":V0016_2_0" index="0" speed="8.50" length="23.05" shape="275.49,480.92 278.74,486.44 281.95,490.51 285.16,494.58 288.41,500.10"/>
        <lane id=":V0016_2_1" index="1" speed="8.50" length="23.05" shape="275.49,480.92 285.53,501.51"/>
    </edge>
    <edge id=":V0016_4" function="internal">
        <lane id=":V0016_4_0" index="0" speed="18.00" length="21.23" shape="278.80,501.07 280.54,497.54 282.11,493.16 284.27,487.91 287.76,481.72"/>
        <lane id=":V0016_4_1" index="1" speed="18.00" length="21.23" shape="278.80,501.07 290.43,483.49"/>
    </edge>
    <edge id=":V0016_6" function="internal">
        <lane id=":V0016_6_0" index="0" speed="5.66" length="9.25" shape="278.80,501.07 280.63,498.97 282.36,498.34 283.99,499.19 285.53,501.51"/>
    </edge>
    <edge id=":V0017_0" function="internal">
        <lane id=":V0017_0_0" index="0" speed="9.05" length="9.04" shape="378.74,694.80 378.00,697.47 377.75,699.82 378.00,701.85 378.75,703.56"/>
        <lane id=":V0017_0_1" index="1" speed="10.33" length="11.93" shape="375.71,693.75 374.80,697.14 374.56,700.19 374.97,702.91 376.05,705.28"/>
    </edge>
    <edge id=":V0017_2" function="internal">
        <lane id=":V0017_2_0" index="0" speed="17.00" length="13.04" shape="372.69,692.70 371.90,696.50 372.10,699.26 372.30,702.02 371.51,705.82"/>
        <lane id=":V0017_2_1" index="1" speed="17.00" length="13.04" shape="372.69,692.70 368.49,704.76"/>
    </edge>
    <edge id=":V0017_4" function="internal">
        <lane id=":V0017_4_0" index="0" speed="18.50" length="17.07" shape="369.56,689.18 378.75,703.56"/>
        <lane id=":V0017_4_1" index="1" speed="18.50" length="17.07" shape="366.86,690.90 376.05,705.28"/>
    </edge>
    <edge id=":V0017_6" function="internal">
        <lane id=":V0017_6_0" index="0" speed="11.33" length="14.46" shape="366.86,690.90 368.53,694.22 369.36,697.63 369.34,701.15 368.49,704.76"/>
    </edge>
    <edge id=":V0018_0" function="internal">
        <lane id=":V0018_0_0" index="0" speed="15.50" length="12.10" shape="309.26,380.82 307.09,377.86 306.13,375.29 305.30,372.85 303.52,370.30"/>
    </edge>
    <edge id=":V0018_1" function="internal">
        <lane id=":V0018_1_0" index="0" speed="8.25" length="10.30" shape="311.56,378.59 309.70,376.26 308.64,373.92 308.39,371.58 308.93,369.24"/>
    </edge>
    <edge id=":V0018_2" function="internal">
        <lane id=":V0018_2_0" index="0" speed="8.94" length="12.22" shape="303.85,381.88 305.02,378.18 305.36,375.01 304.86,372.39 303.52,370.30"/>
    </edge>
    <edge id=":V0018_3" function="internal">
        <lane id=":V0018_3_0" index="0" speed="14.00" length="13.62" shape="303.85,381.88 308.93,369.24"/>
    </edge>
    <edge id=":V0019_0" function="internal">
        <lane id=":V0019_0_0" index="0" speed="10.50" length="18.54" shape="901.80,908.88 899.14,904.30 897.97,900.78 896.81,897.27 894.15,892.69"/>
        <lane id=":V0019_0_1" index="1" speed="10.50" length="18.54" shape="901.80,908.88 899.48,903.91 899.27,899.85 899.07,895.79 896.75,890.83"/>
    </edge>
    <edge id=":V0019_2" function="internal">
        <lane id=":V0019_2_0" index="0" speed="7.90" length="14.41" shape="904.40,907.02 902.57,903.48 902.35,900.27 903.76,897.36 906.78,894.77"/>
        <lane id=":V0019_2_1" index="1" speed="6.39" length="9.04" shape="907.00,905.15 905.85,902.94 905.72,900.92 906.60,899.10 908.49,897.47"/>
    </edge>
    <edge id=":V0019_4" function="internal">
        <lane id=":V0019_4_0" index="0" speed="7.69" length="13.56" shape="891.91,904.22 894.75,901.78 896.07,899.05 895.87,896.02 894.15,892.69"/>
    </edge>
    <edge id=":V0019_5" function="internal">
        <lane id=":V0019_5_0" index="0" speed="21.00" length="17.87" shape="891.91,904.22 896.09,900.97 898.49,898.14 900.88,895.32 905.06,892.07"/>
        <lane id=":V0019_5_1" index="1" speed="21.00" length="17.87" shape="893.63,906.92 897.81,903.67 900.20,900.85 902.60,898.02 906.78,894.77"/>
        <lane id=":V0019_5_2" index="2" speed="21.00" length="17.87" shape="893.63,906.92 908.49,897.47"/>
    </edge>
    <edge id=":V0020_0" function="internal">
        <lane id=":V0020_0_0" index="0" speed="5.88" length="10.51" shape="233.75,944.66 232.90,941.17 231.56,939.36 229.71,939.22 227.36,940.76"/>
    </edge>
    <edge id=":V0020_1" function="internal">
        <lane id=":V0020_1_0" index="0" speed="15.00" length="19.67" shape="233.75,944.66 231.09,925.17"/>
    </edge>
    <edge id=":V0020_2" function="internal">
        <lane id=":V0020_2_0" index="0" speed="23.00" length="20.30" shape="244.26,929.66 239.51,933.32 235.78,935.24 232.07,937.14 227.36,940.76"/>
        <lane id=":V0020_2_1" index="1" speed="23.00" length="20.30" shape="242.10,927.30 237.35,930.96 233.62,932.88 229.91,934.78 225.20,938.40"/>
    </edge>
    <edge id=":V0020_4" function="internal">
        <lane id=":V0020_4_0" index="0" speed="6.23" length="11.99" shape="239.94,924.94 236.43,927.66 233.78,928.61 232.00,927.78 231.09,925.17"/>
    </edge>
    <edge id=":V0020_5" function="internal">
        <lane id=":V0020_5_0" index="0" speed="19.45" length="23.87" shape="239.22,919.26 237.22,923.23 234.22,928.02 230.22,933.21 225.20,938.40"/>
    </edge>
    <edge id=":V0020_6" function="internal">
        <lane id=":V0020_6_0" index="0" speed="6.46" length="10.43" shape="239.22,919.26 236.15,925.44 233.97,928.23"/>
    </edge>
    <edge id=":V0020_7" function="internal">
        <lane id=":V0020_7_0" index="0" speed="6.46" length="5.38" shape="233.97,928.23 233.77,928.48 232.08,928.39 231.09,925.17"/>
    </edge>
    <edge id=":V0021_0" function="internal">
        <lane id=":V0021_0_0" index="0" speed="12.50" length="32.56" shape="330.72,846.37 324.65,852.50 318.39,859.75 313.19,866.63 310.36,871.62"/>
    </edge>
    <edge id=":V0021_1" function="internal">
        <lane id=":V0021_1_0" index="0" speed="12.50" length="33.30" shape="330.72,846.37 306.13,868.83"/>
        <lane id=":V0021_1_1" index="1" speed="12.50" length="33.30" shape="328.56,844.01 303.97,866.47"/>
    </edge>
    <edge id=":V0021_3" function="internal">
        <lane id=":V0021_3_0" index="0" speed="18.00" length="33.47" shape="324.34,841.22 320.99,849.29 316.73,858.19 312.77,866.20 310.36,871.62"/>
    </edge>
    <edge id=":V0021_4" function="internal">
        <lane id=":V0021_4_0" index="0" speed="18.00" length="31.77" shape="321.31,840.17 318.25,847.31 314.18,854.33 309.33,860.84 303.97,866.47"/>
    </edge>
    <edge id=":V0022_0" function="internal">
        <lane id=":V0022_0_0" index="0" speed="26.00" length="17.51" shape="440.85,264.80 438.49,259.79 437.99,255.32 437.89,251.39 436.72,248.04"/>
    </edge>
    <edge id=":V0022_1" function="internal">
        <lane id=":V0022_1_0" index="0" speed="9.90" length="16.08" shape="443.45,262.94 441.27,259.04 440.38,255.23 440.78,251.54 442.48,247.94"/>
        <lane id=":V0022_1_1" index="1" speed="8.69" length="12.19" shape="446.05,261.08 444.35,258.07 443.64,255.17 443.90,252.39 445.15,249.70"/>
    </edge>
    <edge id=":V0022_3" function="internal">
        <lane id=":V0022_3_0" index="0" speed="10.00" length="16.42" shape="432.42,263.14 435.41,258.08 437.13,253.88 437.56,250.54 436.72,248.04"/>
    </edge>
    <edge id=":V0022_4" function="internal">
        <lane id=":V0022_4_0" index="0" speed="9.00" length="18.23" shape="432.42,263.14 442.48,247.94"/>
        <lane id=":V0022_4_1" index="1" speed="9.00" length="18.23" shape="435.09,264.91 445.15,249.70"/>
    </edge>
    <edge id=":V0023_0" function="internal">
        <lane id=":V0023_0_0" index="0" speed="5.50" length="9.60" shape="269.09,453.21 270.72,455.76 272.30,456.57 273.81,455.65 275.26,452.99"/>
    </edge>
    <edge id=":V0023_1" function="internal">
        <lane id=":V0023_1_0" index="0" speed="15.00" length="20.98" shape="266.21,454.61 275.41,473.47"/>
        <lane id=":V0023_1_1" index="1" speed="15.00" length="20.98" shape="263.34,456.02 272.54,474.87"/>
    </edge>
    <edge id=":V0023_3" function="internal">
        <lane id=":V0023_3_0" index="0" speed="11.50" length="23.83" shape="266.37,475.09 275.26,452.99"/>
    </edge>
    <edge id=":V0023_4" function="internal">
        <lane id=":V0023_4_0" index="0" speed="5.50" length="9.60" shape="266.37,475.09 267.82,472.44 269.33,471.51 270.90,472.33 272.54,474.87"/>
    </edge>
    <edge id=":V0024_0" function="internal">
        <lane id=":V0024_0_0" index="0" speed="15.52" length="22.68" shape="378.98,674.64 379.22,676.78 380.69,680.98 383.41,687.26 387.37,695.61"/>
    </edge>
    <edge id=":V0024_1" function="internal">
        <lane id=":V0024_1_0" index="0" speed="17.50" length="19.45" shape="378.98,674.64 378.72,678.43 379.51,682.86 379.98,688.18 378.80,694.61"/>
        <lane id=":V0024_1_1" index="1" speed="17.50" length="19.45" shape="378.98,674.64 378.23,678.32 377.95,682.47 377.38,687.45 375.78,693.56"/>
        <lane id=":V0024_1_2" index="2" speed="17.50" length="19.45" shape="378.98,674.64 372.76,692.51"/>
    </edge>
    <edge id=":V0024_4" function="internal">
        <lane id=":V0024_4_0" index="0" speed="17.00" length="23.39" shape="374.32,676.15 377.48,681.50 380.56,685.30 383.78,689.39 387.37,695.61"/>
        <lane id=":V0024_4_1" index="1" speed="17.00" length="23.39" shape="371.44,677.55 374.61,682.91 377.68,686.70 380.90,690.79 384.49,697.01"/>
        <lane id=":V0024_4_2" index="2" speed="17.00" length="23.39" shape="371.44,677.55 381.62,698.41"/>
    </edge>
    <edge id=":V0024_7" function="internal">
        <lane id=":V0024_7_0" index="0" speed="13.42" length="16.85" shape="371.44,677.55 373.88,683.00 375.42,687.48 376.05,691.00 375.78,693.56"/>
        <lane id=":V0024_7_1" index="1" speed="12.85" length="15.40" shape="371.44,677.55 372.95,681.42 373.67,685.19 373.61,688.89 372.76,692.51"/>
    </edge>
    <edge id=":V0025_0" function="internal">
        <lane id=":V0025_0_0" index="0" speed="21.50" length="15.56" shape="343.89,411.92 333.06,400.75"/>
    </edge>
    <edge id=":V0025_1" function="internal">
        <lane id=":V0025_1_0" index="0" speed="7.22" length="9.48" shape="343.89,411.92 342.51,409.98 341.99,407.89 342.33,405.65 343.53,403.26"/>
    </edge>
    <edge id=":V0025_2" function="internal">
        <lane id=":V0025_2_0" index="0" speed="6.56" length="7.68" shape="331.41,409.97 332.30,408.13 332.49,406.35 331.98,404.63 330.76,402.98"/>
        <lane id=":V0025_2_1" index="1" speed="8.07" length="12.07" shape="334.08,411.74 335.48,408.84 335.78,406.04 334.97,403.35 333.06,400.75"/>
    </edge>
    <edge id=":V0025_4" function="internal">
        <lane id=":V0025_4_0" index="0" speed="15.00" length="12.56" shape="336.75,413.50 338.38,410.14 338.80,407.50 339.23,404.86 340.86,401.49"/>
        <lane id=":V0025_4_1" index="1" speed="15.00" length="12.56" shape="336.75,413.50 343.53,403.26"/>
    </edge>
    <edge id=":V0026_0" function="internal">
        <lane id=":V0026_0_0" index="0" speed="10.48" length="36.85" shape="504.25,342.40 501.65,342.16 497.98,347.19 493.24,357.51 487.42,373.11"/>
    </edge>
    <edge id=":V0026_1" function="internal">
        <lane id=":V0026_1_0" index="0" speed="11.18" length="40.38" shape="504.25,342.40 500.34,340.73 495.19,344.90 488.78,354.92 481.12,370.77"/>
    </edge>
    <edge id=":V0026_2" function="internal">
        <lane id=":V0026_2_0" index="0" speed="20.00" length="18.64" shape="504.25,342.40 501.35,340.06 497.39,338.31 492.92,335.85 488.52,331.41"/>
        <lane id=":V0026_2_1" index="1" speed="20.00" length="18.64" shape="504.25,342.40 501.72,339.72 498.60,337.25 495.02,334.14 491.12,329.55"/>
        <lane id=":V0026_2_2" index="2" speed="20.00" length="18.64" shape="504.25,342.40 493.72,327.69"/>
    </edge>
    <edge id=":V0026_5" function="internal">
        <lane id=":V0026_5_0" index="0" speed="20.50" length="47.97" shape="500.18,326.76 484.40,372.06"/>
    </edge>
    <edge id=":V0026_6" function="internal">
        <lane id=":V0026_6_0" index="0" speed="18.95" length="47.96" shape="500.18,326.76 481.12,370.77"/>
    </edge>
    <edge id=":V0026_7" function="internal">
        <lane id=":V0026_7_0" index="0" speed="6.55" length="13.47" shape="500.18,326.76 498.26,330.83 496.11,332.65 493.73,332.22 491.12,329.55"/>
        <lane id=":V0026_7_1" index="1" speed="5.58" length="9.36" shape="500.18,326.76 498.90,329.33 497.40,330.34 495.67,329.79 493.72,327.69"/>
    </edge>
    <edge id=":V0027_0" function="internal">
        <lane id=":V0027_0_0" index="0" speed="5.80" length="9.44" shape="440.72,516.34 438.46,514.54 436.54,514.15 434.96,515.16 433.70,517.57"/>
    </edge>
    <edge id=":V0027_1" function="internal">
        <lane id=":V0027_1_0" index="0" speed="15.50" length="15.16" shape="443.02,514.11 432.46,503.23"/>
    </edge>
    <edge id=":V0027_2" function="internal">
        <lane id=":V0027_2_0" index="0" speed="17.50" length="17.14" shape="442.24,502.79 439.96,507.83 437.54,511.43 435.34,514.40 433.70,517.57"/>
    </edge>
    <edge id=":V0027_3" function="internal">
        <lane id=":V0027_3_0" index="0" speed="5.73" length="9.19" shape="439.22,501.73 437.98,504.16 436.45,505.22 434.60,504.91 432.46,503.23"/>
    </edge>

    <edge id="E0011" from="V0001" to="V0007" priority="-1">
        <lane id="E0011_0" index="0" speed="10.00" length="238.30" shape="243.81,1050.52 22.24,1138.23"/>
        <lane id="E0011_1" index="1" speed="10.00" length="238.30" shape="242.63,1047.54 21.06,1135.26"/>
    </edge>
    <edge id="E0013" from="V0001" to="V0008" priority="-1">
        <lane id="E0013_0" index="0" speed="7.00" length="308.69" shape="249.92,1032.04 406.65,765.63"/>
        <lane id="E0013_1" index="1" speed="7.00" length="308.69" shape="252.84,1033.39 409.16,767.67"/>
    </edge>
    <edge id="E0023" from="V0003" to="V0009" priority="-1">
        <lane id="E0023_0" index="0" speed="21.00" length="890.94" shape="630.40,21.68 1076.33,792.99"/>
        <lane id="E0023_1" index="1" speed="21.00" length="890.94" shape="627.63,23.28 1073.56,794.59"/>
    </edge>
    <edge id="E0031" from="V0004" to="V0010" priority="-1">
        <lane id="E0031_0" index="0" speed="21.00" length="246.65" shape="136.19,183.64 382.42,169.39"/>
        <lane id="E0031_1" index="1" speed="21.00" length="246.65" shape="136.37,186.84 382.60,172.59"/>
        <lane id="E0031_2" index="2" speed="21.00" length="246.65" shape="136.55,190.03 382.79,175.78"/>
    </edge>
    <edge id="E0039" from="V0010" to="V0003" priority="-1">
        <lane id="E0039_0" index="0" speed="16.00" length="252.31" shape="392.08,167.68 590.15,11.39"/>
        <lane id="E0039_1" index="1" speed="16.00" length="252.31" shape="394.06,170.20 592.13,13.90"/>
    </edge>
    <edge id="E0041" from="V0001" to="V0011" priority="-1">
        <lane id="E0041_0" index="0" speed="9.00" length="83.39" shape="265.39,1041.64 347.30,1057.27"/>
        <lane id="E0041_1" index="1" speed="9.00" length="83.39" shape="264.79,1044.79 346.70,1060.42"/>
    </edge>
    <edge id="E0043" from="V0011" to="V0002" priority="-1">