<?xml version="1.0" encoding="UTF-8"?>

<!-- generated on 2023-06-26 02:05:34 by Eclipse SUMO netconvert Version 1.16.0
<configuration xmlns:xsi="http://www.w3.org/2001/XMLSchema-instance" xsi:noNamespaceSchemaLocation="http://sumo.dlr.de/xsd/netconvertConfiguration.xsd">

    <input>
        <node-files value="data/simulationConfigurations/tests/8\8.nod.xml"/>
        <edge-files value="data/simulationConfigurations/tests/8\8.edg.xml"/>
    </input>

    <output>
        <output-file value="data/simulationConfigurations/tests/8\8.net.xml"/>
    </output>

</configuration>
-->

<net version="1.16" junctionCornerDetail="5" limitTurnSpeed="5.50" xmlns:xsi="http://www.w3.org/2001/XMLSchema-instance" xsi:noNamespaceSchemaLocation="http://sumo.dlr.de/xsd/net_file.xsd">

    <location netOffset="-72.76,-186.33" convBoundary="0.00,0.00,982.19,765.91" origBoundary="72.76,186.33,1054.95,952.24" projParameter="!"/>

    <edge id=":V0002_0" function="internal">
        <lane id=":V0002_0_0" index="0" speed="7.79" length="25.88" shape="978.21,162.61 981.62,163.82 977.82,166.62 970.07,170.09 961.60,173.28"/>
    </edge>
    <edge id=":V0002_1" function="internal">
        <lane id=":V0002_1_0" index="0" speed="7.68" length="25.90" shape="959.97,170.14 952.51,175.91 950.55,178.83 954.07,178.91 963.08,176.15"/>
        <lane id=":V0002_1_1" index="1" speed="2.63" length="1.20" shape="961.46,173.01 961.11,173.27 961.02,173.41 961.18,173.41 961.60,173.28"/>
    </edge>
    <edge id=":V0002_3" function="internal">
        <lane id=":V0002_3_0" index="0" speed="4.98" length="7.67" shape="966.80,179.31 967.45,177.12 967.04,175.86 965.59,175.54 963.08,176.15"/>
        <lane id=":V0002_3_1" index="1" speed="7.09" length="17.25" shape="969.73,180.60 971.22,175.60 970.37,172.72 967.16,171.94 961.60,173.28"/>
    </edge>
    <edge id=":V0003_0" function="internal">
        <lane id=":V0003_0_0" index="0" speed="10.50" length="95.75" shape="396.18,24.40 419.57,51.20 429.05,58.86 424.61,47.39 406.26,16.78"/>
    </edge>
    <edge id=":V0003_1" function="internal">
        <lane id=":V0003_1_0" index="0" speed="3.24" length="2.89" shape="398.74,22.47 397.97,21.62 397.57,21.35 397.53,21.65 397.87,22.54"/>
    </edge>
    <edge id=":V0003_2" function="internal">
        <lane id=":V0003_2_0" index="0" speed="8.26" length="31.41" shape="399.49,21.90 407.51,30.32 410.89,32.59 409.62,28.73 403.70,18.71"/>
    </edge>
    <edge id=":V0003_3" function="internal">
        <lane id=":V0003_3_0" index="0" speed="6.27" length="16.23" shape="402.05,19.96 397.91,15.80 395.82,14.85 395.81,17.09 397.87,22.54"/>
    </edge>
    <edge id=":V0003_4" function="internal">
        <lane id=":V0003_4_0" index="0" speed="12.66" length="39.92" shape="373.90,-0.52 381.25,-3.11 388.57,-0.05 396.00,7.59 403.70,18.71"/>
    </edge>
    <edge id=":V0003_5" function="internal">
        <lane id=":V0003_5_0" index="0" speed="11.17" length="34.09" shape="375.86,2.00 381.77,0.40 387.38,4.17 392.73,11.98 397.87,22.54"/>
    </edge>
    <edge id=":V0003_6" function="internal">
        <lane id=":V0003_6_0" index="0" speed="8.92" length="27.88" shape="382.41,7.62 385.54,4.10 390.27,6.52 395.75,12.74 401.14,20.65"/>
    </edge>
    <edge id=":V0003_7" function="internal">
        <lane id=":V0003_7_0" index="0" speed="8.54" length="27.29" shape="382.41,7.62 385.39,4.07 389.44,7.12 393.84,14.15 397.87,22.54"/>
    </edge>
    <edge id=":V0005_0" function="internal">
        <lane id=":V0005_0_0" index="0" speed="16.50" length="30.87" shape="118.59,489.76 107.70,487.47 99.37,484.86 93.61,481.93 90.42,478.69"/>
        <lane id=":V0005_0_1" index="1" speed="15.90" length="28.22" shape="119.28,486.63 109.02,484.53 101.26,482.24 95.99,479.77 93.21,477.12"/>
        <lane id=":V0005_0_2" index="2" speed="15.15" length="25.58" shape="119.96,483.51 110.35,481.59 103.15,479.62 98.37,477.62 96.00,475.56"/>
    </edge>
    <edge id=":V0005_3" function="internal">
        <lane id=":V0005_3_0" index="0" speed="3.31" length="3.39" shape="119.96,483.51 119.24,482.75 119.08,482.13 119.48,481.62 120.46,481.24"/>
    </edge>
    <edge id=":V0005_4" function="internal">
        <lane id=":V0005_4_0" index="0" speed="5.50" length="10.91" shape="120.12,475.98 116.75,477.51 115.68,478.90 116.92,480.14 120.46,481.24"/>
    </edge>
    <edge id=":V0005_5" function="internal">
        <lane id=":V0005_5_0" index="0" speed="11.90" length="28.43" shape="120.12,475.98 109.82,479.11 101.90,480.35 96.37,479.69 93.21,477.12"/>
        <lane id=":V0005_5_1" index="1" speed="10.99" length="24.11" shape="119.05,472.96 109.95,475.85 103.07,477.25 98.42,477.15 96.00,475.56"/>
    </edge>
    <edge id=":V0006_0" function="internal">
        <lane id=":V0006_0_0" index="0" speed="16.00" length="17.77" shape="657.36,316.70 660.81,320.90 663.22,323.79 665.22,326.91 667.41,331.83"/>
        <lane id=":V0006_0_1" index="1" speed="16.00" length="17.77" shape="654.90,318.75 658.16,322.71 660.46,325.42 662.36,328.36 664.43,333.00"/>
    </edge>
    <edge id=":V0006_2" function="internal">
        <lane id=":V0006_2_0" index="0" speed="7.82" length="20.76" shape="654.90,318.75 656.79,323.62 655.00,327.50 650.55,329.99 644.43,330.71"/>
    </edge>
    <edge id=":V0006_3" function="internal">
        <lane id=":V0006_3_0" index="0" speed="3.84" length="5.36" shape="654.90,318.75 655.08,320.39 654.67,321.33 653.67,321.57 652.08,321.10"/>
    </edge>
    <edge id=":V0006_4" function="internal">
        <lane id=":V0006_4_0" index="0" speed="6.17" length="13.12" shape="651.00,336.48 652.94,334.17 652.49,332.44 649.66,331.29 644.43,330.71"/>
    </edge>
    <edge id=":V0006_5" function="internal">
        <lane id=":V0006_5_0" index="0" speed="5.50" length="12.92" shape="651.00,336.48 651.99,334.75 651.69,332.29 650.08,329.11 647.17,325.20"/>
        <lane id=":V0006_5_1" index="1" speed="5.50" length="15.12" shape="651.00,336.48 653.07,333.85 653.53,330.75 652.39,327.19 649.62,323.15"/>
        <lane id=":V0006_5_2" index="2" speed="5.50" length="17.59" shape="651.00,336.48 654.15,332.96 655.38,329.22 654.69,325.27 652.08,321.10"/>
    </edge>
    <edge id=":V0006_8" function="internal">
        <lane id=":V0006_8_0" index="0" speed="7.00" length="15.93" shape="651.00,336.48 656.02,332.79 659.94,330.98 662.74,331.05 664.43,333.00"/>
    </edge>
    <edge id=":V0007_0" function="internal">
        <lane id=":V0007_0_0" index="0" speed="4.30" length="5.35" shape="780.98,620.81 775.70,619.92"/>
        <lane id=":V0007_0_1" index="1" speed="2.81" length="1.33" shape="778.05,622.11 778.19,622.25 778.33,622.03 778.47,621.63 778.63,621.21"/>
    </edge>
    <edge id=":V0007_2" function="internal">
        <lane id=":V0007_2_0" index="0" speed="5.50" length="5.22" shape="768.18,616.14 772.77,618.63"/>
        <lane id=":V0007_2_1" index="1" speed="6.78" length="8.37" shape="767.50,619.27 770.91,619.94 773.42,620.28 775.01,620.27 775.70,619.92"/>
        <lane id=":V0007_2_2" index="2" speed="8.16" length="12.54" shape="766.81,622.39 771.41,623.16 774.92,623.22 777.32,622.57 778.63,621.21"/>
    </edge>
    <edge id=":V0008_0" function="internal">
        <lane id=":V0008_0_0" index="0" speed="12.43" length="31.61" shape="-4.41,309.36 -5.78,303.77 -3.96,297.60 1.06,290.84 9.26,283.50"/>
    </edge>
    <edge id=":V0008_1" function="internal">
        <lane id=":V0008_1_0" index="0" speed="9.93" length="26.68" shape="-1.62,307.79 -2.74,302.27 0.24,297.97 6.39,294.61 14.78,291.91"/>
        <lane id=":V0008_1_1" index="1" speed="8.74" length="20.36" shape="1.18,306.23 0.73,303.14 2.95,300.24 7.86,297.54 15.44,295.05"/>
    </edge>
    <edge id=":V0008_3" function="internal">
        <lane id=":V0008_3_0" index="0" speed="8.11" length="24.25" shape="17.19,303.21 10.87,301.21 7.43,296.78 7.37,291.27 11.23,286.03"/>
        <lane id=":V0008_3_1" index="1" speed="7.46" length="20.26" shape="17.19,303.21 12.07,301.49 9.53,297.69 9.82,292.98 13.19,288.55"/>
    </edge>
    <edge id=":V0008_5" function="internal">
        <lane id=":V0008_5_0" index="0" speed="5.52" length="12.19" shape="17.19,303.21 13.69,301.82 12.23,300.00 12.82,297.74 15.44,295.05"/>
    </edge>
    <edge id=":V0009_0" function="internal">
        <lane id=":V0009_0_0" index="0" speed="5.05" length="6.83" shape="520.20,159.35 520.98,158.75 520.91,157.63 519.98,155.97 518.20,153.78"/>
    </edge>
    <edge id=":V0009_1" function="internal">
        <lane id=":V0009_1_0" index="0" speed="9.50" length="25.22" shape="520.20,159.35 525.45,158.46 532.68,157.78 539.94,157.35 545.29,157.23"/>
    </edge>
    <edge id=":V0009_2" function="internal">
        <lane id=":V0009_2_0" index="0" speed="12.00" length="23.28" shape="520.20,159.35 526.31,158.53 532.90,158.92 538.71,160.42 542.46,162.93"/>
    </edge>
    <edge id=":V0009_3" function="internal">
        <lane id=":V0009_3_0" index="0" speed="8.49" length="12.57" shape="524.61,162.77 525.26,160.59 524.81,158.01 523.25,155.03 520.58,151.64"/>
    </edge>
    <edge id=":V0009_4" function="internal">
        <lane id=":V0009_4_0" index="0" speed="12.73" length="22.12" shape="524.61,162.77 527.22,160.27 531.54,158.51 537.57,157.50 545.29,157.23"/>
    </edge>
    <edge id=":V0009_5" function="internal">
        <lane id=":V0009_5_0" index="0" speed="7.80" length="17.16" shape="524.61,162.77 527.69,160.67 532.09,160.65 536.58,162.22 539.93,164.88"/>
        <lane id=":V0009_5_1" index="1" speed="7.62" length="16.30" shape="524.61,162.77 527.00,160.42 529.93,160.31 533.40,162.45 537.39,166.84"/>
    </edge>
    <edge id=":V0010_0" function="internal">
        <lane id=":V0010_0_0" index="0" speed="23.00" length="27.21" shape="633.81,560.97 636.59,564.92 641.34,569.63 647.15,574.67 653.12,579.65"/>
        <lane id=":V0010_0_1" index="1" speed="23.00" length="27.21" shape="633.81,560.97 636.27,565.31 640.31,570.85 645.42,576.74 651.07,582.11"/>
    </edge>
    <edge id=":V0010_2" function="internal">
        <lane id=":V0010_2_0" index="0" speed="7.82" length="19.57" shape="633.81,560.97 636.54,568.39 637.21,573.47 635.82,576.20 632.36,576.58"/>
        <lane id=":V0010_2_1" index="1" speed="7.02" length="15.45" shape="633.81,560.97 636.00,566.88 636.58,570.92 635.55,573.10 632.91,573.43"/>
    </edge>
    <edge id=":V0011_0" function="internal">
        <lane id=":V0011_0_0" index="0" speed="7.07" length="11.27" shape="642.33,391.60 644.57,394.50 646.84,396.11 649.13,396.41 651.45,395.43"/>
    </edge>
    <edge id=":V0011_1" function="internal">
        <lane id=":V0011_1_0" index="0" speed="14.00" length="14.41" shape="639.62,393.31 647.30,405.50"/>
        <lane id=":V0011_1_1" index="1" speed="14.00" length="14.41" shape="636.91,395.01 644.59,407.20"/>
    </edge>
    <edge id=":V0011_3" function="internal">
        <lane id=":V0011_3_0" index="0" speed="16.50" length="18.12" shape="635.07,403.05 640.17,400.07 644.49,398.37 648.20,397.10 651.45,395.43"/>
    </edge>
    <edge id=":V0011_4" function="internal">
        <lane id=":V0011_4_0" index="0" speed="6.40" length="9.04" shape="636.91,405.67 639.14,404.54 641.16,404.41 642.97,405.30 644.59,407.20"/>
    </edge>
    <edge id=":V0012_0" function="internal">
        <lane id=":V0012_0_0" index="0" speed="19.50" length="16.68" shape="271.40,418.77 268.27,420.42 265.37,422.62 261.87,425.03 256.94,427.31"/>
        <lane id=":V0012_0_1" index="1" speed="19.50" length="16.68" shape="271.40,418.77 255.87,424.30"/>
    </edge>
    <edge id=":V0012_2" function="internal">
        <lane id=":V0012_2_0" index="0" speed="5.58" length="9.36" shape="271.40,418.77 268.59,419.39 266.87,418.85 266.22,417.16 266.65,414.32"/>
    </edge>
    <edge id=":V0012_3" function="internal">
        <lane id=":V0012_3_0" index="0" speed="5.58" length="9.36" shape="261.69,431.77 262.12,428.93 261.47,427.24 259.74,426.70 256.94,427.31"/>
    </edge>
    <edge id=":V0012_4" function="internal">
        <lane id=":V0012_4_0" index="0" speed="25.00" length="18.14" shape="261.69,431.77 266.65,414.32"/>
    </edge>
    <edge id=":V0013_0" function="internal">
        <lane id=":V0013_0_0" index="0" speed="6.11" length="9.51" shape="567.35,393.38 568.82,395.81 570.55,397.00 572.52,396.93 574.75,395.60"/>
        <lane id=":V0013_0_1" index="1" speed="7.69" length="15.81" shape="564.42,394.66 566.84,398.63 569.71,400.52 573.03,400.33 576.80,398.06"/>
    </edge>
    <edge id=":V0013_2" function="internal">
        <lane id=":V0013_2_0" index="0" speed="21.50" length="17.99" shape="561.49,395.94 568.71,412.42"/>
    </edge>
    <edge id=":V0013_3" function="internal">
        <lane id=":V0013_3_0" index="0" speed="15.00" length="20.17" shape="557.45,405.80 562.33,402.40 566.11,400.69 569.89,398.98 574.75,395.60"/>
        <lane id=":V0013_3_1" index="1" speed="15.00" length="20.17" shape="559.50,408.26 564.38,404.86 568.16,403.15 571.93,401.45 576.80,398.06"/>
    </edge>
    <edge id=":V0013_5" function="internal">
        <lane id=":V0013_5_0" index="0" speed="5.99" length="9.08" shape="561.54,410.72 563.75,409.36 565.69,409.19 567.34,410.21 568.71,412.42"/>
    </edge>
    <edge id=":V0014_0" function="internal">
        <lane id=":V0014_0_0" index="0" speed="6.05" length="9.07" shape="678.90,361.07 680.18,363.31 681.79,364.41 683.75,364.38 686.05,363.21"/>
    </edge>
    <edge id=":V0014_1" function="internal">
        <lane id=":V0014_1_0" index="0" speed="16.50" length="19.44" shape="675.92,362.24 683.04,380.34"/>
    </edge>
    <edge id=":V0014_2" function="internal">
        <lane id=":V0014_2_0" index="0" speed="11.50" length="17.11" shape="675.89,378.20 678.50,375.75 680.78,372.79 683.62,369.45 687.89,365.83"/>
        <lane id=":V0014_2_1" index="1" speed="11.50" length="17.11" shape="675.89,378.20 689.73,368.44"/>
    </edge>
    <edge id=":V0014_4" function="internal">
        <lane id=":V0014_4_0" index="0" speed="6.05" length="9.07" shape="675.89,378.20 678.19,377.03 680.15,376.99 681.76,378.10 683.04,380.34"/>
    </edge>
    <edge id=":V0015_0" function="internal">
        <lane id=":V0015_0_0" index="0" speed="10.00" length="17.56" shape="515.62,167.54 504.45,154.15"/>
        <lane id=":V0015_0_1" index="1" speed="10.00" length="17.56" shape="518.08,165.49 506.91,152.10"/>
        <lane id=":V0015_0_2" index="2" speed="10.00" length="17.56" shape="518.08,165.49 515.12,161.17 513.72,157.77 512.32,154.38 509.36,150.05"/>
    </edge>
    <edge id=":V0015_3" function="internal">
        <lane id=":V0015_3_0" index="0" speed="4.49" length="4.99" shape="520.53,163.44 519.43,161.91 518.97,160.72 519.17,159.88 520.00,159.40"/>
    </edge>
    <edge id=":V0015_4" function="internal">
        <lane id=":V0015_4_0" index="0" speed="5.77" length="9.16" shape="502.34,160.83 504.82,159.78 506.00,158.32 505.88,156.44 504.45,154.15"/>
    </edge>
    <edge id=":V0015_5" function="internal">
        <lane id=":V0015_5_0" index="0" speed="17.50" length="17.43" shape="503.17,163.92 520.00,159.40"/>
    </edge>
    <edge id=":V0016_0" function="internal">
        <lane id=":V0016_0_0" index="0" speed="4.95" length="6.94" shape="776.21,610.18 776.85,609.71 777.76,607.77 778.65,605.51 779.21,604.04"/>
    </edge>
    <edge id=":V0016_1" function="internal">
        <lane id=":V0016_1_0" index="0" speed="11.00" length="17.22" shape="773.50,611.87 782.67,626.44"/>
    </edge>
    <edge id=":V0016_2" function="internal">
        <lane id=":V0016_2_0" index="0" speed="9.50" length="16.17" shape="772.85,618.45 775.21,614.33 777.49,611.89 779.77,609.45 782.14,605.34"/>
        <lane id=":V0016_2_1" index="1" speed="9.50" length="16.17" shape="775.78,619.74 778.14,615.62 780.42,613.18 782.70,610.74 785.07,606.63"/>
    </edge>
    <edge id=":V0016_4" function="internal">
        <lane id=":V0016_4_0" index="0" speed="4.91" length="6.82" shape="778.71,621.03 779.42,621.37 780.64,623.08 781.88,625.11 782.67,626.44"/>
    </edge>
    <edge id=":V0017_0" function="internal">
        <lane id=":V0017_0_0" index="0" speed="12.50" length="18.67" shape="312.96,523.84 294.57,520.61"/>
        <lane id=":V0017_0_1" index="1" speed="12.50" length="18.67" shape="313.52,520.68 295.12,517.46"/>
        <lane id=":V0017_0_2" index="2" speed="12.50" length="18.67" shape="314.07,517.53 295.68,514.31"/>
    </edge>
    <edge id=":V0017_3" function="internal">
        <lane id=":V0017_3_0" index="0" speed="5.85" length="9.12" shape="314.07,517.53 311.54,516.71 310.21,515.36 310.07,513.46 311.13,511.02"/>
    </edge>
    <edge id=":V0017_4" function="internal">
        <lane id=":V0017_4_0" index="0" speed="5.71" length="8.64" shape="302.90,518.32 294.57,520.61"/>
        <lane id=":V0017_4_1" index="1" speed="6.32" length="10.88" shape="305.63,519.99 304.35,519.26 300.94,518.47 297.25,517.81 295.12,517.46"/>
    </edge>
    <edge id=":V0017_6" function="internal">
        <lane id=":V0017_6_0" index="0" speed="15.00" length="10.52" shape="305.63,519.99 311.13,511.02"/>
    </edge>
    <edge id=":V0018_0" function="internal">
        <lane id=":V0018_0_0" index="0" speed="5.59" length="9.34" shape="605.99,329.03 603.14,329.27 601.65,330.29 601.50,332.10 602.70,334.69"/>
    </edge>
    <edge id=":V0018_1" function="internal">
        <lane id=":V0018_1_0" index="0" speed="11.50" length="18.00" shape="605.99,329.03 588.01,328.24"/>
    </edge>
    <edge id=":V0018_2" function="internal">
        <lane id=":V0018_2_0" index="0" speed="14.50" length="16.33" shape="594.00,320.87 602.70,334.69"/>
        <lane id=":V0018_2_1" index="1" speed="14.50" length="16.33" shape="591.29,322.58 600.00,336.39"/>
    </edge>
    <edge id=":V0018_4" function="internal">
        <lane id=":V0018_4_0" index="0" speed="5.59" length="9.34" shape="591.29,322.58 592.50,325.17 592.35,326.98 590.85,328.00 588.01,328.24"/>
    </edge>
    <edge id=":V0019_0" function="internal">
        <lane id=":V0019_0_0" index="0" speed="22.50" length="25.28" shape="664.06,588.79 669.18,592.62 673.87,595.01 679.40,596.69 687.05,598.42"/>
        <lane id=":V0019_0_1" index="1" speed="22.50" length="26.80" shape="662.01,591.24 667.24,595.16 672.23,597.74 678.19,599.65 686.37,601.55"/>
    </edge>
    <edge id=":V0019_2" function="internal">
        <lane id=":V0019_2_0" index="0" speed="17.50" length="27.97" shape="662.01,591.24 683.48,609.17"/>
    </edge>
    <edge id=":V0019_3" function="internal">
        <lane id=":V0019_3_0" index="0" speed="18.50" length="27.34" shape="659.81,595.75 666.31,596.65 672.08,596.79 678.53,597.07 687.05,598.42"/>
        <lane id=":V0019_3_1" index="1" speed="18.50" length="27.34" shape="659.13,598.87 665.62,599.78 671.40,599.91 677.84,600.20 686.37,601.55"/>
        <lane id=":V0019_3_2" index="2" speed="18.50" length="27.34" shape="659.13,598.87 685.69,604.67"/>
    </edge>
    <edge id=":V0019_6" function="internal">
        <lane id=":V0019_6_0" index="0" speed="13.50" length="26.60" shape="659.13,598.87 666.51,600.93 673.53,603.62 679.43,606.51 683.48,609.17"/>
    </edge>
    <edge id=":V0020_0" function="internal">
        <lane id=":V0020_0_0" index="0" speed="6.20" length="10.05" shape="645.11,289.25 642.27,290.65 640.78,292.35 640.64,294.36 641.87,296.66"/>
        <lane id=":V0020_0_1" index="1" speed="7.76" length="16.51" shape="644.04,286.23 639.54,288.50 637.26,291.32 637.19,294.70 639.33,298.62"/>
    </edge>
    <edge id=":V0020_2" function="internal">
        <lane id=":V0020_2_0" index="0" speed="9.50" length="15.02" shape="644.04,286.23 629.89,291.27"/>
    </edge>
    <edge id=":V0020_3" function="internal">
        <lane id=":V0020_3_0" index="0" speed="18.50" length="17.23" shape="634.10,281.39 636.79,285.68 637.98,289.03 639.18,292.37 641.87,296.66"/>
        <lane id=":V0020_3_1" index="1" speed="18.50" length="17.23" shape="631.57,283.35 634.25,287.64 635.45,290.99 636.65,294.33 639.33,298.62"/>
    </edge>
    <edge id=":V0020_5" function="internal">
        <lane id=":V0020_5_0" index="0" speed="5.32" length="7.07" shape="629.04,285.31 630.51,287.52 631.15,289.25 630.94,290.50 629.89,291.27"/>
    </edge>
    <edge id=":V0021_0" function="internal">
        <lane id=":V0021_0_0" index="0" speed="6.12" length="9.06" shape="578.84,435.54 580.19,437.71 581.85,438.78 583.82,438.73 586.10,437.57"/>
    </edge>
    <edge id=":V0021_1" function="internal">
        <lane id=":V0021_1_0" index="0" speed="20.50" length="15.18" shape="578.84,435.54 584.94,449.45"/>
    </edge>
    <edge id=":V0021_2" function="internal">
        <lane id=":V0021_2_0" index="0" speed="12.50" length="12.57" shape="575.83,444.81 586.10,437.57"/>
        <lane id=":V0021_2_1" index="1" speed="12.50" length="12.57" shape="577.67,447.42 587.95,440.18"/>
    </edge>
    <edge id=":V0021_4" function="internal">
        <lane id=":V0021_4_0" index="0" speed="6.12" length="9.06" shape="577.67,447.42 579.95,446.26 581.92,446.21 583.59,447.27 584.94,449.45"/>
    </edge>
    <edge id=":V0022_0" function="internal">
        <lane id=":V0022_0_0" index="0" speed="16.50" length="12.40" shape="245.51,512.01 233.48,509.90"/>
        <lane id=":V0022_0_1" index="1" speed="16.50" length="12.40" shape="246.06,508.86 234.03,506.75"/>
        <lane id=":V0022_0_2" index="2" speed="16.50" length="12.40" shape="246.06,508.86 242.52,507.73 240.32,506.23 238.12,504.73 234.58,503.60"/>
    </edge>
    <edge id=":V0022_3" function="internal">
        <lane id=":V0022_3_0" index="0" speed="6.29" length="9.04" shape="246.61,505.71 244.22,504.92 242.74,503.57 242.17,501.65 242.51,499.15"/>
    </edge>
    <edge id=":V0022_4" function="internal">
        <lane id=":V0022_4_0" index="0" speed="5.96" length="8.00" shape="240.53,506.11 233.48,509.90"/>
    </edge>
    <edge id=":V0022_5" function="internal">
        <lane id=":V0022_5_0" index="0" speed="23.50" length="7.23" shape="240.53,506.11 242.51,499.15"/>
    </edge>
    <edge id=":V0023_0" function="internal">
        <lane id=":V0023_0_0" index="0" speed="9.86" length="12.99" shape="314.88,211.23 319.47,209.82 322.88,208.38 325.09,206.90 326.12,205.39"/>
    </edge>
    <edge id=":V0023_1" function="internal">
        <lane id=":V0023_1_0" index="0" speed="14.50" length="13.91" shape="315.71,214.32 329.15,210.71"/>
    </edge>
    <edge id=":V0023_2" function="internal">
        <lane id=":V0023_2_0" index="0" speed="21.50" length="14.36" shape="319.23,217.90 320.94,213.72 322.90,210.87 324.74,208.41 326.12,205.39"/>
    </edge>
    <edge id=":V0023_3" function="internal">
        <lane id=":V0023_3_0" index="0" speed="9.14" length="11.06" shape="322.31,218.77 323.46,215.74 324.98,213.39 326.87,211.71 329.15,210.71"/>
    </edge>
    <edge id=":V0024_0" function="internal">
        <lane id=":V0024_0_0" index="0" speed="11.00" length="20.82" shape="418.92,539.16 412.95,538.63 408.66,538.99 404.28,539.34 398.08,538.76"/>
        <lane id=":V0024_0_1" index="1" speed="11.00" length="20.82" shape="419.47,536.01 413.51,535.47 409.21,535.84 404.83,536.19 398.63,535.61"/>
        <lane id=":V0024_0_2" index="2" speed="11.00" length="20.82" shape="419.47,536.01 399.18,532.46"/>
    </edge>
    <edge id=":V0024_3" function="internal">
        <lane id=":V0024_3_0" index="0" speed="6.52" length="13.97" shape="419.47,536.01 414.94,534.73 412.82,532.88 413.11,530.47 415.82,527.50"/>
        <lane id=":V0024_3_1" index="1" speed="5.52" length="9.53" shape="419.47,536.01 416.62,535.15 415.40,533.86 415.81,532.13 417.87,529.96"/>
    </edge>
    <edge id=":V0024_5" function="internal">
        <lane id=":V0024_5_0" index="0" speed="5.01" length="7.57" shape="405.41,540.30 404.72,539.82 402.40,539.36 399.75,538.98 398.08,538.76"/>
    </edge>
    <edge id=":V0024_6" function="internal">
        <lane id=":V0024_6_0" index="0" speed="15.00" length="16.81" shape="405.41,540.30 407.40,537.35 408.52,533.56 410.19,529.32 413.78,525.04"/>
        <lane id=":V0024_6_1" index="1" speed="15.00" length="16.81" shape="405.41,540.30 407.76,537.70 409.68,534.68 412.06,531.27 415.82,527.50"/>
        <lane id=":V0024_6_2" index="2" speed="15.00" length="16.81" shape="405.41,540.30 417.87,529.96"/>
    </edge>
    <edge id=":V0025_0" function="internal">
        <lane id=":V0025_0_0" index="0" speed="6.50" length="13.08" shape="615.65,355.24 617.98,357.93 620.59,359.07 623.49,358.65 626.66,356.67"/>
    </edge>
    <edge id=":V0025_1" function="internal">
        <lane id=":V0025_1_0" index="0" speed="7.50" length="14.76" shape="615.65,355.24 618.38,358.65 620.85,360.50 623.32,362.36 626.06,365.77"/>
        <lane id=":V0025_1_1" index="1" speed="7.50" length="14.76" shape="612.94,356.94 615.68,360.35 618.15,362.21 620.61,364.06 623.35,367.47"/>
        <lane id=":V0025_1_2" index="2" speed="7.50" length="14.76" shape="612.94,356.94 620.64,369.18"/>
    </edge>
    <edge id=":V0025_4" function="internal">
        <lane id=":V0025_4_0" index="0" speed="15.00" length="18.03" shape="611.01,365.50 615.84,362.15 619.99,360.14 623.57,358.59 626.66,356.67"/>
    </edge>
    <edge id=":V0025_5" function="internal">
        <lane id=":V0025_5_0" index="0" speed="7.08" length="11.98" shape="613.06,367.97 616.31,365.77 619.11,364.95 621.46,365.52 623.35,367.47"/>
        <lane id=":V0025_5_1" index="1" speed="6.24" length="9.05" shape="613.06,367.97 615.21,366.65 617.19,366.41 619.00,367.25 620.64,369.18"/>
    </edge>
    <edge id=":V0026_0" function="internal">
        <lane id=":V0026_0_0" index="0" speed="5.59" length="9.35" shape="483.70,218.41 485.17,220.87 486.75,221.76 488.43,221.09 490.22,218.86"/>
    </edge>
    <edge id=":V0026_1" function="internal">
        <lane id=":V0026_1_0" index="0" speed="6.00" length="14.12" shape="483.70,218.41 489.37,231.35"/>
    </edge>
    <edge id=":V0026_2" function="internal">
        <lane id=":V0026_2_0" index="0" speed="22.50" length="14.12" shape="482.84,230.90 490.22,218.86"/>
    </edge>
    <edge id=":V0026_3" function="internal">
        <lane id=":V0026_3_0" index="0" speed="5.59" length="9.35" shape="482.84,230.90 484.63,228.67 486.32,228.00 487.90,228.90 489.37,231.35"/>
    </edge>
    <edge id=":V0027_0" function="internal">
        <lane id=":V0027_0_0" index="0" speed="15.50" length="34.89" shape="760.96,578.61 763.35,584.29 767.22,592.89 771.75,602.19 776.11,610.01"/>
    </edge>
    <edge id=":V0027_1" function="internal">
        <lane id=":V0027_1_0" index="0" speed="20.00" length="41.80" shape="760.96,578.61 779.10,616.02"/>
        <lane id=":V0027_1_1" index="1" speed="20.00" length="41.80" shape="760.96,578.61 776.33,617.73"/>
    </edge>
    <edge id=":V0027_3" function="internal">
        <lane id=":V0027_3_0" index="0" speed="13.00" length="35.00" shape="757.45,580.39 776.11,610.01"/>
        <lane id=":V0027_3_1" index="1" speed="13.00" length="35.00" shape="754.74,582.09 773.39,611.71"/>
    </edge>
    <edge id=":V0027_5" function="internal">
        <lane id=":V0027_5_0" index="0" speed="17.50" length="41.71" shape="754.74,582.09 759.85,589.92 766.16,599.59 772.16,609.43 776.33,617.73"/>
    </edge>
    <edge id=":V0028_0" function="internal">
        <lane id=":V0028_0_0" index="0" speed="7.90" length="10.09" shape="628.25,302.53 626.72,301.37 624.62,300.90 621.96,301.12 618.74,302.03"/>
        <lane id=":V0028_0_1" index="1" speed="9.21" length="13.98" shape="630.71,300.48 628.42,298.62 625.48,297.76 621.90,297.89 617.66,299.01"/>
    </edge>
    <edge id=":V0028_2" function="internal">
        <lane id=":V0028_2_0" index="0" speed="5.50" length="16.49" shape="633.17,298.43 629.28,295.33 625.65,294.41 622.01,293.49 618.13,290.39"/>
        <lane id=":V0028_2_1" index="1" speed="5.50" length="16.49" shape="633.17,298.43 629.75,295.11 626.87,293.38 624.00,291.66 620.58,288.34"/>
        <lane id=":V0028_2_2" index="2" speed="5.50" length="16.49" shape="633.17,298.43 623.04,286.29"/>
    </edge>
    <edge id=":V0028_5" function="internal">
        <lane id=":V0028_5_0" index="0" speed="18.50" length="14.13" shape="629.70,291.34 626.78,292.91 624.44,294.91 621.72,297.04 617.66,299.01"/>
        <lane id=":V0028_5_1" index="1" speed="18.50" length="14.13" shape="629.70,291.34 616.59,296.00"/>
    </edge>
    <edge id=":V0028_7" function="internal">
        <lane id=":V0028_7_0" index="0" speed="7.97" length="10.28" shape="629.70,291.34 627.22,291.83 624.87,291.49 622.66,290.33 620.58,288.34"/>
        <lane id=":V0028_7_1" index="1" speed="7.35" length="8.63" shape="629.70,291.34 628.57,291.27 627.09,290.41 625.24,288.75 623.04,286.29"/>
    </edge>
    <edge id=":V0029_0" function="internal">
        <lane id=":V0029_0_0" index="0" speed="6.68" length="7.12" shape="297.80,513.42 302.80,518.49"/>
    </edge>
    <edge id=":V0029_1" function="internal">
        <lane id=":V0029_1_0" index="0" speed="22.00" length="15.80" shape="297.80,513.42 313.24,516.79"/>
        <lane id=":V0029_1_1" index="1" speed="22.00" length="15.80" shape="297.12,516.54 312.55,519.92"/>
        <lane id=":V0029_1_2" index="2" speed="22.00" length="15.80" shape="296.43,519.67 311.87,523.04"/>
    </edge>
    <edge id=":V0029_4" function="internal">
        <lane id=":V0029_4_0" index="0" speed="14.50" length="7.75" shape="298.75,525.10 302.80,518.49"/>
        <lane id=":V0029_4_1" index="1" speed="14.50" length="7.75" shape="301.48,526.77 305.53,520.16"/>
    </edge>
    <edge id=":V0029_6" function="internal">
        <lane id=":V0029_6_0" index="0" speed="9.11" length="13.91" shape="301.48,526.77 304.05,523.28 306.75,520.97 309.59,519.85 312.55,519.92"/>
        <lane id=":V0029_6_1" index="1" speed="8.45" length="11.86" shape="301.48,526.77 303.34,524.56 305.70,523.19 308.54,522.69 311.87,523.04"/>
    </edge>
    <edge id=":V0030_0" function="internal">
        <lane id=":V0030_0_0" index="0" speed="20.50" length="14.58" shape="300.83,315.65 286.27,315.01"/>
    </edge>
    <edge id=":V0030_1" function="internal">