<nodes><node id="V0001" x="313.69" y="1146.6000000000001" type="priority" /><node id="V0002" x="1318.6833333333334" y="438.24583333333334" type="priority" /><node id="V0003" x="573.7483333333333" y="232.91750000000002" type="priority" /><node id="V0004" x="1176.7083333333333" y="1190.3" type="priority" /><node id="V0005" x="215.135" y="830.7541666666666" type="priority" /><node id="V0006" x="917.7916666666666" y="645.2425" type="priority" /><node id="V0007" x="1063.5083333333334" y="1016.025" type="priority" /><node id="V0008" x="90.945" y="608.9866666666667" type="priority" /><node id="V0009" x="752.2199999999999" y="431.2058333333334" type="priority" /><node id="V0010" x="887.3583333333332" y="948.6" type="priority" /><node id="V0011" x="892.3249999999999" y="738.7566666666667" type="priority" /><node id="V0012" x="424.815" y="756.1758333333333" type="priority" /><node id="V0013" x="797.9941666666667" y="744.6658333333334" type="priority" /><node id="V0014" x="941.0500000000001" y="704.4166666666666" type="priority" /><node id="V0015" x="741.5858333333334" y="434.065" type="priority" /><node id="V0016" x="1064.925" y="1012.8083333333334" type="priority" /><node id="V0017" x="478.9508333333333" y="877.0" type="priority" /><node id="V0018" x="831.0358333333334" y="641.4383333333334" type="priority" /><node id="V0019" x="934.2916666666666" y="987.8000000000001" type="priority" /><node id="V0020" x="878.7166666666667" y="594.7316666666667" type="priority" /><node id="V0021" x="818.2766666666666" y="790.9508333333333" type="priority" /><node id="V0022" x="394.63166666666666" y="862.2166666666667" type="priority" /><node id="V0023" x="497.845" y="499.5933333333333" type="priority" /><node id="V0024" x="610.7075" y="900.1" type="priority" /><node id="V0025" x="862.3916666666668" y="691.2225" type="priority" /><node id="V0026" x="698.8141666666667" y="518.3291666666667" type="priority" /><node id="V0027" x="1057.8" y="1001.4916666666667" type="priority" /><node id="V0028" x="876.35" y="595.5749999999999" type="priority" /><node id="V0029" x="472.80749999999995" y="887.025" type="priority" /><node id="V0030" x="462.07666666666665" y="625.26" type="priority" /><node id="V0031" x="706.3908333333334" y="443.5275" type="priority" /><node id="V0032" x="652.92" y="907.5" type="priority" /><node id="V0033" x="392.56" y="869.5" type="priority" /><node id="V0034" x="594.4525" y="913.5916666666667" type="priority" /><node id="V0035" x="670.2891666666667" y="453.2325" type="priority" /><node id="V0036" x="752.0383333333333" y="639.79" type="priority" /><node id="V0037" x="628.7858333333334" y="632.57" type="priority" /><node id="V0038" x="746.7066666666666" y="440.20166666666665" type="priority" /><node id="V0039" x="815.73" y="617.1358333333334" type="priority" /><node id="V0040" x="632.4933333333333" y="921.9" type="priority" /><node id="V0041" x="751.2275" y="637.9391666666667" type="priority" /><node id="V0042" x="588.7616666666667" y="697.8633333333333" type="priority" /><node id="V0043" x="725.7883333333333" y="474.3258333333333" type="priority" /><node id="V0044" x="756.5816666666666" y="638.1741666666667" type="priority" /></nodes>