<nodes><node id="V0001" x="250.95200000000003" y="917.2800000000001" type="priority" /><node id="V0002" x="1054.9466666666667" y="350.59666666666664" type="priority" /><node id="V0003" x="458.9986666666666" y="186.334" type="priority" /><node id="V0004" x="941.3666666666667" y="952.24" type="priority" /><node id="V0005" x="172.108" y="664.6033333333332" type="priority" /><node id="V0006" x="734.2333333333333" y="516.194" type="priority" /><node id="V0007" x="850.8066666666667" y="812.8199999999999" type="priority" /><node id="V0008" x="72.756" y="487.18933333333337" type="priority" /><node id="V0009" x="601.776" y="344.9646666666667" type="priority" /><node id="V0010" x="709.8866666666667" y="758.88" type="priority" /><node id="V0011" x="713.86" y="591.0053333333333" type="priority" /><node id="V0012" x="339.852" y="604.9406666666667" type="priority" /><node id="V0013" x="638.3953333333334" y="595.7326666666667" type="priority" /><node id="V0014" x="752.84" y="563.5333333333333" type="priority" /><node id="V0015" x="593.2686666666667" y="347.252" type="priority" /><node id="V0016" x="851.94" y="810.2466666666667" type="priority" /><node id="V0017" x="383.16066666666666" y="701.6" type="priority" /><node id="V0018" x="664.8286666666667" y="513.1506666666667" type="priority" /><node id="V0019" x="747.4333333333333" y="790.24" type="priority" /><node id="V0020" x="702.9733333333334" y="475.7853333333333" type="priority" /><node id="V0021" x="654.6213333333333" y="632.7606666666667" type="priority" /><node id="V0022" x="315.70533333333333" y="689.7733333333333" type="priority" /><node id="V0023" x="398.276" y="399.67466666666667" type="priority" /><node id="V0024" x="488.566" y="720.08" type="priority" /><node id="V0025" x="689.9133333333334" y="552.978" type="priority" /><node id="V0026" x="559.0513333333333" y="414.6633333333333" type="priority" /><node id="V0027" x="846.24" y="801.1933333333333" type="priority" /><node id="V0028" x="701.08" y="476.46" type="priority" /><node id="V0029" x="378.246" y="709.62" type="priority" /><node id="V0030" x="369.66133333333335" y="500.20799999999997" type="priority" /><node id="V0031" x="565.1126666666667" y="354.822" type="priority" /><node id="V0032" x="522.336" y="726.0" type="priority" /><node id="V0033" x="314.048" y="695.6" type="priority" /><node id="V0034" x="475.562" y="730.8733333333333" type="priority" /><node id="V0035" x="536.2313333333334" y="362.586" type="priority" /><node id="V0036" x="601.6306666666666" y="511.832" type="priority" /><node id="V0037" x="503.0286666666667" y="506.056" type="priority" /><node id="V0038" x="597.3653333333333" y="352.16133333333335" type="priority" /><node id="V0039" x="652.5840000000001" y="493.70866666666666" type="priority" /><node id="V0040" x="505.99466666666666" y="737.52" type="priority" /><node id="V0041" x="600.982" y="510.35133333333334" type="priority" /><node id="V0042" x="471.00933333333336" y="558.2906666666667" type="priority" /><node id="V0043" x="580.6306666666666" y="379.46066666666667" type="priority" /><node id="V0044" x="605.2653333333333" y="510.53933333333333" type="priority" /></nodes>