<configuration><input><net-file value="8.net.xml" /><route-files value="8.rou.xml" /></input><time><begin value="0" /></time></configuration>