<?xml version="1.0" encoding="UTF-8"?>

<!-- generated on 2023-06-27 19:51:15 by Eclipse SUMO netconvert Version 1.16.0
<configuration xmlns:xsi="http://www.w3.org/2001/XMLSchema-instance" xsi:noNamespaceSchemaLocation="http://sumo.dlr.de/xsd/netconvertConfiguration.xsd">

    <input>
        <node-files value="data/simulationConfigurations/optimized\optimized.nod.xml"/>
        <edge-files value="data/simulationConfigurations/optimized\optimized.edg.xml"/>
    </input>

    <output>
        <output-file value="data/simulationConfigurations/optimized\optimized.net.xml"/>
    </output>

</configuration>
-->

<net version="1.16" junctionCornerDetail="5" limitTurnSpeed="5.50" xmlns:xsi="http://www.w3.org/2001/XMLSchema-instance" xsi:noNamespaceSchemaLocation="http://sumo.dlr.de/xsd/net_file.xsd">

    <location netOffset="-90.94,-232.92" convBoundary="0.00,0.00,1227.74,957.38" origBoundary="90.94,232.92,1318.68,1190.30" projParameter="!"/>

    <edge id=":V0002_0" function="internal">
        <lane id=":V0002_0_0" index="0" speed="7.45" length="23.44" shape="1223.80,200.48 1227.69,202.37 1226.17,206.64 1221.13,211.50 1214.49,215.14"/>
        <lane id=":V0002_0_1" index="1" speed="6.64" length="18.23" shape="1223.76,203.68 1226.32,204.70 1223.95,207.05 1218.80,209.86 1213.00,212.27"/>
    </edge>
    <edge id=":V0002_2" function="internal">
        <lane id=":V0002_2_0" index="0" speed="9.93" length="44.70" shape="1210.60,207.62 1197.73,217.58 1194.34,222.63 1200.42,222.77 1215.97,218.00"/>
        <lane id=":V0002_2_1" index="1" speed="6.83" length="20.00" shape="1212.08,210.49 1206.32,214.95 1204.81,217.20 1207.53,217.27 1214.49,215.14"/>
        <lane id=":V0002_2_2" index="2" speed="3.78" length="4.70" shape="1213.57,213.36 1214.92,212.31 1215.28,211.78 1214.64,211.77 1213.00,212.27"/>
    </edge>
    <edge id=":V0002_5" function="internal">
        <lane id=":V0002_5_0" index="0" speed="4.25" length="5.14" shape="1217.43,216.79 1217.77,215.49 1217.40,214.78 1216.30,214.66 1214.49,215.14"/>
        <lane id=":V0002_5_1" index="1" speed="6.60" length="14.70" shape="1220.35,218.09 1221.55,213.97 1220.73,211.63 1217.88,211.06 1213.00,212.27"/>
    </edge>
    <edge id=":V0003_0" function="internal">
        <lane id=":V0003_0_0" index="0" speed="6.00" length="74.02" shape="506.51,40.90 524.60,61.62 531.92,67.55 528.49,58.67 514.31,35.01"/>
    </edge>
    <edge id=":V0003_1" function="internal">
        <lane id=":V0003_1_0" index="0" speed="5.73" length="13.44" shape="509.07,38.97 505.75,35.35 504.12,34.44 504.17,36.25 505.91,40.77"/>
        <lane id=":V0003_1_1" index="1" speed="9.09" length="36.94" shape="511.62,37.04 502.52,27.09 498.04,24.61 498.20,29.60 502.98,42.06"/>
    </edge>
    <edge id=":V0003_3" function="internal">
        <lane id=":V0003_3_0" index="0" speed="6.50" length="28.64" shape="507.91,39.85 515.22,47.53 518.30,49.61 517.14,46.08 511.75,36.95"/>
    </edge>
    <edge id=":V0003_4" function="internal">
        <lane id=":V0003_4_0" index="0" speed="6.52" length="17.76" shape="510.47,37.91 505.94,33.37 503.67,32.34 503.66,34.80 505.91,40.77"/>
        <lane id=":V0003_4_1" index="1" speed="9.36" length="38.76" shape="513.03,35.97 503.11,26.03 498.13,23.73 498.08,29.07 502.98,42.06"/>
    </edge>
    <edge id=":V0003_6" function="internal">
        <lane id=":V0003_6_0" index="0" speed="8.00" length="66.29" shape="461.91,6.14 474.43,1.49 486.70,6.24 499.03,18.65 511.75,36.95"/>
    </edge>
    <edge id=":V0003_7" function="internal">
        <lane id=":V0003_7_0" index="0" speed="14.92" length="61.83" shape="463.87,8.66 476.11,4.18 486.98,9.55 496.81,22.50 505.91,40.77"/>
        <lane id=":V0003_7_1" index="1" speed="14.18" length="55.74" shape="465.84,11.19 476.32,7.73 485.87,13.12 494.70,25.26 502.98,42.06"/>
    </edge>
    <edge id=":V0003_9" function="internal">
        <lane id=":V0003_9_0" index="0" speed="12.00" length="57.42" shape="470.42,14.27 477.11,6.14 486.97,10.54 498.24,22.95 509.18,38.88"/>
    </edge>
    <edge id=":V0003_10" function="internal">
        <lane id=":V0003_10_0" index="0" speed="11.86" length="54.29" shape="473.50,15.15 479.92,6.88 488.61,11.80 497.84,24.80 505.91,40.77"/>
        <lane id=":V0003_10_1" index="1" speed="11.04" length="46.77" shape="476.58,16.03 481.62,10.15 488.52,15.48 496.06,27.60 502.98,42.06"/>
    </edge>
    <edge id=":V0005_0" function="internal">
        <lane id=":V0005_0_0" index="0" speed="16.00" length="38.34" shape="154.24,607.98 139.56,605.09 128.63,602.25 121.46,599.45 118.05,596.69"/>
        <lane id=":V0005_0_1" index="1" speed="16.00" length="35.75" shape="154.93,604.85 140.89,602.15 130.52,599.64 123.84,597.29 120.84,595.13"/>
    </edge>
    <edge id=":V0005_2" function="internal">
        <lane id=":V0005_2_0" index="0" speed="3.12" length="2.76" shape="154.93,604.85 154.34,604.23 154.21,603.72 154.54,603.31 155.33,603.00"/>
    </edge>
    <edge id=":V0005_3" function="internal">
        <lane id=":V0005_3_0" index="0" speed="5.50" length="10.91" shape="156.37,591.48 153.00,593.02 151.93,594.41 153.17,595.65 156.71,596.75"/>
        <lane id=":V0005_3_1" index="1" speed="7.77" length="23.64" shape="155.30,588.47 148.00,591.80 145.68,594.81 148.36,597.50 156.02,599.87"/>
    </edge>
    <edge id=":V0005_5" function="internal">
        <lane id=":V0005_5_0" index="0" speed="13.32" length="35.85" shape="155.30,588.47 141.20,593.13 130.76,595.80 123.97,596.46 120.84,595.13"/>
    </edge>
    <edge id=":V0005_6" function="internal">
        <lane id=":V0005_6_0" index="0" speed="8.15" length="22.84" shape="146.99,586.86 143.25,590.87 143.51,594.38 147.77,597.38 156.02,599.87"/>
        <lane id=":V0005_6_1" index="1" speed="9.51" length="31.65" shape="145.08,584.29 139.30,590.23 139.09,595.33 144.43,599.59 155.33,603.00"/>
    </edge>
    <edge id=":V0005_8" function="internal">
        <lane id=":V0005_8_0" index="0" speed="10.54" length="27.92" shape="145.08,584.29 136.63,590.29 129.41,594.60 123.96,596.46 120.84,595.13"/>
    </edge>
    <edge id=":V0006_0" function="internal">
        <lane id=":V0006_0_0" index="0" speed="15.00" length="16.64" shape="826.98,399.42 829.26,403.99 829.57,408.11 829.29,411.90 829.80,415.46"/>
    </edge>
    <edge id=":V0006_1" function="internal">
        <lane id=":V0006_1_0" index="0" speed="8.21" length="23.02" shape="824.52,401.47 825.07,406.10 821.76,411.06 816.40,414.97 810.83,416.43"/>
        <lane id=":V0006_1_1" index="1" speed="7.08" length="16.70" shape="822.06,403.52 822.28,406.71 819.48,409.91 815.20,412.35 810.97,413.23"/>
    </edge>
    <edge id=":V0006_3" function="internal">
        <lane id=":V0006_3_0" index="0" speed="3.80" length="5.21" shape="822.06,403.52 822.23,405.12 821.83,406.03 820.86,406.26 819.32,405.80"/>
    </edge>
    <edge id=":V0006_4" function="internal">
        <lane id=":V0006_4_0" index="0" speed="5.46" length="9.90" shape="812.70,421.99 814.93,419.69 815.37,418.00 814.00,416.91 810.83,416.43"/>
    </edge>
    <edge id=":V0006_5" function="internal">
        <lane id=":V0006_5_0" index="0" speed="8.61" length="16.62" shape="812.70,421.99 816.50,418.17 818.45,414.54 818.58,411.10 816.86,407.85"/>
        <lane id=":V0006_5_1" index="1" speed="9.27" length="19.44" shape="812.70,421.99 817.57,417.27 820.30,413.01 820.88,409.18 819.32,405.80"/>
    </edge>
    <edge id=":V0006_7" function="internal">
        <lane id=":V0006_7_0" index="0" speed="8.29" length="19.03" shape="812.70,421.99 817.19,418.92 822.58,416.18 827.31,414.71 829.80,415.46"/>
    </edge>
    <edge id=":V0007_0" function="internal">
        <lane id=":V0007_0_0" index="0" speed="6.09" length="12.45" shape="975.73,769.29 968.84,779.66"/>
        <lane id=":V0007_0_1" index="1" speed="5.67" length="10.53" shape="972.75,770.46 971.77,780.95"/>
    </edge>
    <edge id=":V0007_2" function="internal">
        <lane id=":V0007_2_0" index="0" speed="5.16" length="4.49" shape="965.50,776.65 968.84,779.66"/>
        <lane id=":V0007_2_1" index="1" speed="6.31" length="7.15" shape="964.82,779.78 966.26,780.18 968.51,780.78 970.65,781.18 971.77,780.95"/>
    </edge>
    <edge id=":V0008_0" function="internal">
        <lane id=":V0008_0_0" index="0" speed="12.50" length="31.97" shape="0.22,386.29 -2.22,379.21 -1.52,372.25 2.30,365.42 9.26,358.72"/>
    </edge>
    <edge id=":V0008_1" function="internal">
        <lane id=":V0008_1_0" index="0" speed="9.72" length="25.52" shape="3.01,384.73 1.12,378.92 2.44,374.05 7.00,370.12 14.79,367.12"/>
        <lane id=":V0008_1_1" index="1" speed="9.17" length="22.57" shape="3.01,384.73 1.76,380.20 3.43,376.27 8.00,372.96 15.49,370.25"/>
    </edge>
    <edge id=":V0008_3" function="internal">
        <lane id=":V0008_3_0" index="0" speed="8.78" length="28.71" shape="18.04,381.66 10.61,379.29 6.61,374.01 6.63,367.46 11.23,361.24"/>
        <lane id=":V0008_3_1" index="1" speed="7.47" length="20.31" shape="17.32,378.43 12.17,376.71 9.58,372.91 9.83,368.20 13.19,363.76"/>
    </edge>
    <edge id=":V0008_5" function="internal">
        <lane id=":V0008_5_0" index="0" speed="5.53" length="12.24" shape="17.32,378.43 13.79,377.07 12.31,375.25 12.88,372.98 15.49,370.25"/>
    </edge>
    <edge id=":V0009_0" function="internal">
        <lane id=":V0009_0_0" index="0" speed="4.93" length="6.43" shape="648.04,196.88 648.19,196.46 647.66,195.45 646.46,193.87 644.59,191.70"/>
    </edge>
    <edge id=":V0009_1" function="internal">
        <lane id=":V0009_1_0" index="0" speed="18.00" length="25.33" shape="648.04,196.88 654.69,195.26 660.64,194.24 666.66,193.73 673.50,193.64"/>
        <lane id=":V0009_1_1" index="1" speed="18.00" length="25.33" shape="648.87,199.97 655.38,198.37 661.04,197.38 666.76,196.91 673.46,196.84"/>
    </edge>
    <edge id=":V0009_3" function="internal">
        <lane id=":V0009_3_0" index="0" speed="11.98" length="23.09" shape="648.87,199.97 656.37,198.48 662.49,198.41 667.25,199.76 670.63,202.53"/>
    </edge>
    <edge id=":V0009_4" function="internal">
        <lane id=":V0009_4_0" index="0" speed="5.48" length="11.64" shape="648.87,199.97 652.25,199.61 656.23,199.86 659.07,200.65 659.02,201.96"/>
    </edge>
    <edge id=":V0009_5" function="internal">
        <lane id=":V0009_5_0" index="0" speed="5.36" length="11.07" shape="652.36,197.52 660.93,204.53"/>
    </edge>
    <edge id=":V0009_6" function="internal">
        <lane id=":V0009_6_0" index="0" speed="7.55" length="9.78" shape="652.36,197.52 652.29,196.58 651.37,194.95 649.59,192.61 646.96,189.56"/>
        <lane id=":V0009_6_1" index="1" speed="8.00" length="11.27" shape="652.36,197.52 653.10,195.38 652.84,192.99 651.59,190.34 649.34,187.42"/>
    </edge>
    <edge id=":V0009_8" function="internal">
        <lane id=":V0009_8_0" index="0" speed="11.50" length="21.97" shape="652.36,197.52 654.63,195.73 658.91,194.49 665.20,193.80 673.50,193.64"/>
        <lane id=":V0009_8_1" index="1" speed="11.50" length="18.79" shape="655.09,199.19 656.83,198.08 660.47,197.32 666.01,196.91 673.46,196.84"/>
    </edge>
    <edge id=":V0009_10" function="internal">
        <lane id=":V0009_10_0" index="0" speed="6.60" length="11.90" shape="657.82,200.86 659.81,199.89 662.74,200.59 665.78,202.33 668.10,204.49"/>
    </edge>
    <edge id=":V0010_0" function="internal">
        <lane id=":V0010_0_0" index="0" speed="12.00" length="20.79" shape="801.23,706.74 803.88,711.67 806.54,714.51 809.86,716.86 814.46,720.33"/>
        <lane id=":V0010_0_1" index="1" speed="12.00" length="20.79" shape="798.30,708.02 801.13,713.36 803.95,716.46 807.47,719.03 812.41,722.79"/>
        <lane id=":V0010_0_2" index="2" speed="12.00" length="20.79" shape="795.37,709.31 798.38,715.04 801.36,718.40 805.09,721.20 810.36,725.24"/>
    </edge>
    <edge id=":V0010_3" function="internal">
        <lane id=":V0010_3_0" index="0" speed="6.92" length="15.01" shape="795.37,709.31 797.10,714.45 797.06,717.90 795.24,719.66 791.64,719.72"/>
        <lane id=":V0010_3_1" index="1" speed="6.01" length="10.91" shape="795.37,709.31 796.56,712.94 796.43,715.36 794.98,716.57 792.20,716.57"/>
    </edge>
    <edge id=":V0011_0" function="internal">
        <lane id=":V0011_0_0" index="0" speed="6.40" length="9.04" shape="795.39,493.33 797.01,495.23 798.83,496.12 800.85,495.99 803.07,494.86"/>
    </edge>
    <edge id=":V0011_1" function="internal">
        <lane id=":V0011_1_0" index="0" speed="20.50" length="17.78" shape="795.39,493.33 804.87,508.37"/>
    </edge>
    <edge id=":V0011_2" function="internal">
        <lane id=":V0011_2_0" index="0" speed="12.00" length="12.08" shape="795.35,504.22 797.95,501.78 799.21,499.54 800.47,497.31 803.07,494.86"/>
        <lane id=":V0011_2_1" index="1" speed="12.00" length="12.08" shape="797.19,506.84 799.79,504.39 801.05,502.16 802.31,499.92 804.91,497.48"/>
        <lane id=":V0011_2_2" index="2" speed="12.00" length="12.08" shape="797.19,506.84 806.75,500.09"/>
    </edge>
    <edge id=":V0011_5" function="internal">
        <lane id=":V0011_5_0" index="0" speed="6.40" length="9.04" shape="797.19,506.84 799.41,505.70 801.43,505.58 803.25,506.47 804.87,508.37"/>
    </edge>
    <edge id=":V0012_0" function="internal">
        <lane id=":V0012_0_0" index="0" speed="15.00" length="19.94" shape="338.17,523.43 334.77,525.17 331.16,527.62 326.66,530.39 320.60,533.07"/>
        <lane id=":V0012_0_1" index="1" speed="15.00" length="19.94" shape="338.17,523.43 319.53,530.06"/>
    </edge>
    <edge id=":V0012_2" function="internal">
        <lane id=":V0012_2_0" index="0" speed="6.55" length="13.49" shape="338.17,523.43 333.79,524.48 331.02,523.94 329.87,521.81 330.35,518.10"/>
        <lane id=":V0012_2_1" index="1" speed="5.58" length="9.36" shape="338.17,523.43 335.37,524.04 333.64,523.50 332.99,521.81 333.43,518.97"/>
    </edge>
    <edge id=":V0012_4" function="internal">
        <lane id=":V0012_4_0" index="0" speed="6.15" length="11.72" shape="328.46,536.42 328.70,533.65 327.47,532.16 324.77,531.97 320.60,533.07"/>
    </edge>
    <edge id=":V0012_5" function="internal">
        <lane id=":V0012_5_0" index="0" speed="19.50" length="18.69" shape="328.46,536.42 328.48,532.69 327.39,528.48 326.54,523.45 327.27,517.22"/>
        <lane id=":V0012_5_1" index="1" speed="19.50" length="18.69" shape="328.46,536.42 328.98,532.77 328.97,528.78 329.18,524.02 330.35,518.10"/>
        <lane id=":V0012_5_2" index="2" speed="19.50" length="18.69" shape="328.46,536.42 333.43,518.97"/>
    </edge>
    <edge id=":V0013_0" function="internal">
        <lane id=":V0013_0_0" index="0" speed="5.99" length="9.08" shape="710.33,499.30 711.70,501.51 713.35,502.53 715.28,502.36 717.50,501.00"/>
    </edge>
    <edge id=":V0013_1" function="internal">
        <lane id=":V0013_1_0" index="0" speed="15.50" length="14.09" shape="707.40,500.58 713.05,513.49"/>
        <lane id=":V0013_1_1" index="1" speed="15.50" length="14.09" shape="704.47,501.87 710.12,514.77"/>
    </edge>
    <edge id=":V0013_3" function="internal">
        <lane id=":V0013_3_0" index="0" speed="14.00" length="18.91" shape="702.95,513.07 717.50,501.00"/>
    </edge>
    <edge id=":V0013_4" function="internal">
        <lane id=":V0013_4_0" index="0" speed="5.99" length="9.08" shape="702.95,513.07 705.16,511.71 707.10,511.54 708.75,512.56 710.12,514.77"/>
    </edge>
    <edge id=":V0014_0" function="internal">
        <lane id=":V0014_0_0" index="0" speed="6.26" length="9.80" shape="846.23,457.27 847.55,459.47 849.31,460.47 851.51,460.27 854.15,458.86"/>
    </edge>
    <edge id=":V0014_1" function="internal">
        <lane id=":V0014_1_0" index="0" speed="16.50" length="18.83" shape="846.23,457.27 848.05,460.52 850.52,463.81 853.30,467.87 856.04,473.47"/>
        <lane id=":V0014_1_1" index="1" speed="16.50" length="18.83" shape="846.23,457.27 853.06,474.64"/>
    </edge>
    <edge id=":V0014_3" function="internal">
        <lane id=":V0014_3_0" index="0" speed="12.00" length="15.69" shape="842.23,467.26 846.09,465.15 849.11,464.37 852.13,463.59 855.99,461.48"/>
        <lane id=":V0014_3_1" index="1" speed="12.00" length="15.69" shape="842.23,467.26 846.50,465.48 850.03,465.68 853.57,465.88 857.84,464.09"/>
    </edge>
    <edge id=":V0014_5" function="internal">
        <lane id=":V0014_5_0" index="0" speed="7.64" length="15.19" shape="844.07,469.88 847.92,467.92 851.19,467.86 853.90,469.71 856.04,473.47"/>
        <lane id=":V0014_5_1" index="1" speed="6.05" length="9.07" shape="845.91,472.50 848.21,471.33 850.17,471.29 851.78,472.40 853.06,474.64"/>
    </edge>
    <edge id=":V0015_0" function="internal">
        <lane id=":V0015_0_0" index="0" speed="8.00" length="18.65" shape="646.57,203.76 642.66,199.85 639.44,197.72 636.23,195.58 632.32,191.68"/>
        <lane id=":V0015_0_1" index="1" speed="8.00" length="18.65" shape="649.02,201.71 645.12,197.80 641.90,195.67 638.69,193.53 634.78,189.63"/>
        <lane id=":V0015_0_2" index="2" speed="8.00" length="18.65" shape="649.02,201.71 637.23,187.58"/>
    </edge>
    <edge id=":V0015_3" function="internal">
        <lane id=":V0015_3_0" index="0" speed="3.30" length="2.06" shape="649.02,201.71 648.55,201.06 648.33,200.56 648.37,200.21 648.68,200.02"/>
    </edge>
    <edge id=":V0015_4" function="internal">
        <lane id=":V0015_4_0" index="0" speed="5.77" length="9.16" shape="630.21,198.36 632.69,197.31 633.87,195.84 633.75,193.97 632.32,191.68"/>
    </edge>
    <edge id=":V0015_5" function="internal">
        <lane id=":V0015_5_0" index="0" speed="23.00" length="17.40" shape="631.04,201.45 647.84,196.93"/>
        <lane id=":V0015_5_1" index="1" speed="23.00" length="17.40" shape="631.87,204.54 648.68,200.02"/>
    </edge>
    <edge id=":V0016_0" function="internal">
        <lane id=":V0016_0_0" index="0" speed="4.90" length="6.77" shape="973.87,764.70 974.45,764.94 975.27,764.20 976.33,762.47 977.62,759.76"/>
    </edge>
    <edge id=":V0016_1" function="internal">
        <lane id=":V0016_1_0" index="0" speed="22.00" length="17.22" shape="973.87,764.70 982.88,779.01"/>
        <lane id=":V0016_1_1" index="1" speed="22.00" length="17.22" shape="971.00,766.15 980.17,780.72"/>
        <lane id=":V0016_1_2" index="2" speed="22.00" length="17.22" shape="968.13,767.59 977.47,782.42"/>
    </edge>
    <edge id=":V0016_4" function="internal">
        <lane id=":V0016_4_0" index="0" speed="12.50" length="21.55" shape="968.92,779.47 977.62,759.76"/>
        <lane id=":V0016_4_1" index="1" speed="12.50" length="21.55" shape="971.85,780.76 980.55,761.05"/>
    </edge>
    <edge id=":V0016_6" function="internal">
        <lane id=":V0016_6_0" index="0" speed="6.20" length="11.78" shape="971.85,780.76 973.66,777.83 975.65,776.85 977.82,777.81 980.17,780.72"/>
        <lane id=":V0016_6_1" index="1" speed="5.22" length="7.90" shape="971.85,780.76 972.90,779.26 974.19,779.04 975.71,780.09 977.47,782.42"/>
    </edge>
    <edge id=":V0017_0" function="internal">
        <lane id=":V0017_0_0" index="0" speed="24.50" length="19.59" shape="391.67,646.35 372.38,642.97"/>
    </edge>
    <edge id=":V0017_1" function="internal">
        <lane id=":V0017_1_0" index="0" speed="5.85" length="9.12" shape="391.67,646.35 389.14,645.53 387.81,644.17 387.67,642.27 388.73,639.84"/>
    </edge>
    <edge id=":V0017_2" function="internal">
        <lane id=":V0017_2_0" index="0" speed="5.04" length="6.45" shape="377.74,645.52 377.74,644.81 376.85,644.15 375.06,643.54 372.38,642.97"/>
    </edge>
    <edge id=":V0017_3" function="internal">
        <lane id=":V0017_3_0" index="0" speed="18.50" length="10.59" shape="383.20,648.86 388.73,639.84"/>
    </edge>
    <edge id=":V0018_0" function="internal">
        <lane id=":V0018_0_0" index="0" speed="5.59" length="9.34" shape="756.08,414.03 753.24,414.26 751.74,415.29 751.59,417.09 752.80,419.69"/>
        <lane id=":V0018_0_1" index="1" speed="7.38" length="17.44" shape="756.23,410.83 750.91,411.27 748.11,413.18 747.84,416.56 750.09,421.39"/>
    </edge>
    <edge id=":V0018_2" function="internal">
        <lane id=":V0018_2_0" index="0" speed="10.50" length="20.22" shape="756.23,410.83 736.02,409.94"/>
    </edge>
    <edge id=":V0018_3" function="internal">
        <lane id=":V0018_3_0" index="0" speed="13.50" length="20.22" shape="742.02,402.58 752.80,419.69"/>
        <lane id=":V0018_3_1" index="1" speed="13.50" length="20.22" shape="739.31,404.28 750.09,421.39"/>
    </edge>
    <edge id=":V0018_5" function="internal">
        <lane id=":V0018_5_0" index="0" speed="5.59" length="9.34" shape="739.31,404.28 740.52,406.88 740.37,408.68 738.87,409.71 736.02,409.94"/>
    </edge>
    <edge id=":V0019_0" function="internal">
        <lane id=":V0019_0_0" index="0" speed="20.50" length="25.28" shape="840.10,741.74 846.15,746.73 850.87,750.07 855.63,752.31 861.80,754.00"/>
    </edge>
    <edge id=":V0019_1" function="internal">
        <lane id=":V0019_1_0" index="0" speed="21.00" length="27.19" shape="838.04,744.20 858.91,761.63"/>
        <lane id=":V0019_1_1" index="1" speed="21.00" length="27.19" shape="835.99,746.66 856.86,764.08"/>
    </edge>
    <edge id=":V0019_3" function="internal">
        <lane id=":V0019_3_0" index="0" speed="17.50" length="28.07" shape="833.79,751.16 838.85,751.75 845.96,752.18 853.99,752.81 861.80,754.00"/>
        <lane id=":V0019_3_1" index="1" speed="17.50" length="28.07" shape="833.79,751.16 861.11,757.13"/>
    </edge>
    <edge id=":V0019_5" function="internal">
        <lane id=":V0019_5_0" index="0" speed="18.00" length="26.60" shape="833.79,751.16 838.37,752.73 844.28,755.62 850.70,759.51 856.86,764.08"/>
    </edge>
    <edge id=":V0020_0" function="internal">
        <lane id=":V0020_0_0" index="0" speed="5.93" length="9.10" shape="806.70,363.57 804.38,364.79 803.27,366.36 803.36,368.28 804.65,370.56"/>
        <lane id=":V0020_0_1" index="1" speed="7.55" length="15.57" shape="805.63,360.56 801.66,362.64 799.75,365.33 799.90,368.62 802.12,372.52"/>
    </edge>
    <edge id=":V0020_2" function="internal">
        <lane id=":V0020_2_0" index="0" speed="15.00" length="18.02" shape="804.56,357.54 799.70,359.80 796.70,362.03 793.69,364.27 788.83,366.53"/>
        <lane id=":V0020_2_1" index="1" speed="15.00" length="18.02" shape="804.56,357.54 787.76,363.52"/>
    </edge>
    <edge id=":V0020_4" function="internal">
        <lane id=":V0020_4_0" index="0" speed="15.00" length="21.46" shape="789.12,355.71 793.20,360.18 796.72,362.92 800.31,365.77 804.65,370.56"/>
        <lane id=":V0020_4_1" index="1" speed="15.00" length="21.46" shape="786.59,357.67 790.67,362.13 794.19,364.88 797.78,367.73 802.12,372.52"/>
        <lane id=":V0020_4_2" index="2" speed="15.00" length="21.46" shape="786.59,357.67 799.59,374.48"/>
    </edge>
    <edge id=":V0020_7" function="internal">
        <lane id=":V0020_7_0" index="0" speed="5.26" length="6.89" shape="786.59,357.67 788.09,359.88 788.78,361.59 788.67,362.80 787.76,363.52"/>
    </edge>
    <edge id=":V0021_0" function="internal">
        <lane id=":V0021_0_0" index="0" speed="6.56" length="10.61" shape="726.98,545.27 728.43,547.37 730.39,548.22 732.86,547.82 735.84,546.16"/>
        <lane id=":V0021_0_1" index="1" speed="8.04" length="16.54" shape="724.05,546.55 726.39,550.08 729.44,551.63 733.21,551.20 737.69,548.78"/>
    </edge>
    <edge id=":V0021_2" function="internal">
        <lane id=":V0021_2_0" index="0" speed="5.50" length="16.52" shape="724.05,546.55 726.92,550.62 730.16,552.52 733.39,554.42 736.26,558.49"/>
        <lane id=":V0021_2_1" index="1" speed="5.50" length="16.52" shape="724.05,546.55 726.41,550.70 728.69,553.16 730.97,555.62 733.33,559.77"/>
        <lane id=":V0021_2_2" index="2" speed="5.50" length="16.52" shape="724.05,546.55 730.40,561.05"/>
    </edge>
    <edge id=":V0021_5" function="internal">
        <lane id=":V0021_5_0" index="0" speed="11.50" length="17.80" shape="721.30,556.41 735.84,546.16"/>
        <lane id=":V0021_5_1" index="1" speed="11.50" length="17.80" shape="723.14,559.03 737.69,548.78"/>
    </edge>
    <edge id=":V0021_7" function="internal">
        <lane id=":V0021_7_0" index="0" speed="6.50" length="12.12" shape="723.14,559.03 726.60,557.08 729.46,556.56 731.70,557.45 733.33,559.77"/>
        <lane id=":V0021_7_1" index="1" speed="6.12" length="9.06" shape="723.14,559.03 725.42,557.87 727.39,557.82 729.05,558.88 730.40,561.05"/>
    </edge>
    <edge id=":V0022_0" function="internal">
        <lane id=":V0022_0_0" index="0" speed="22.00" length="11.88" shape="307.35,631.57 295.65,629.51"/>
    </edge>
    <edge id=":V0022_1" function="internal">
        <lane id=":V0022_1_0" index="0" speed="6.29" length="9.04" shape="307.35,631.57 304.96,630.78 303.48,629.43 302.91,627.51 303.24,625.01"/>
    </edge>
    <edge id=":V0022_2" function="internal">
        <lane id=":V0022_2_0" index="0" speed="5.46" length="6.53" shape="301.47,631.25 295.09,632.67"/>
    </edge>
    <edge id=":V0022_3" function="internal">
        <lane id=":V0022_3_0" index="0" speed="16.00" length="6.48" shape="301.47,631.25 303.24,625.01"/>
    </edge>
    <edge id=":V0023_0" function="internal">
        <lane id=":V0023_0_0" index="0" speed="7.70" length="7.67" shape="396.36,264.54 397.79,263.87 399.01,262.67 400.03,260.96 400.85,258.72"/>
    </edge>
    <edge id=":V0023_1" function="internal">
        <lane id=":V0023_1_0" index="0" speed="24.00" length="13.81" shape="397.19,267.63 410.53,264.04"/>
    </edge>
    <edge id=":V0023_2" function="internal">
        <lane id=":V0023_2_0" index="0" speed="21.50" length="10.50" shape="404.22,270.26 404.54,267.29 404.04,265.05 403.55,262.75 403.93,259.59"/>
        <lane id=":V0023_2_1" index="1" speed="21.50" length="10.50" shape="404.22,270.26 407.00,260.47"/>
    </edge>
    <edge id=":V0023_4" function="internal">
        <lane id=":V0023_4_0" index="0" speed="8.41" length="9.29" shape="404.22,270.26 405.13,268.04 406.49,266.26 408.29,264.93 410.53,264.04"/>
    </edge>
    <edge id=":V0024_0" function="internal">
        <lane id=":V0024_0_0" index="0" speed="21.50" length="23.57" shape="522.87,672.60 515.91,670.87 509.82,668.69 504.65,666.67 500.46,665.42"/>
    </edge>
    <edge id=":V0024_1" function="internal">
        <lane id=":V0024_1_0" index="0" speed="5.52" length="9.53" shape="523.43,669.45 520.57,668.59 519.35,667.29 519.77,665.56 521.82,663.40"/>
    </edge>
    <edge id=":V0024_2" function="internal">
        <lane id=":V0024_2_0" index="0" speed="5.40" length="9.07" shape="502.62,671.01 504.43,669.05 504.67,667.46 503.35,666.25 500.46,665.42"/>
    </edge>
    <edge id=":V0024_3" function="internal">
        <lane id=":V0024_3_0" index="0" speed="19.50" length="19.64" shape="506.71,675.94 521.82,663.40"/>
    </edge>
    <edge id=":V0025_0" function="internal">
        <lane id=":V0025_0_0" index="0" speed="6.24" length="9.05" shape="771.21,448.92 772.85,450.84 774.66,451.69 776.64,451.45 778.79,450.13"/>
    </edge>
    <edge id=":V0025_1" function="internal">
        <lane id=":V0025_1_0" index="0" speed="15.00" length="12.07" shape="768.50,450.62 774.93,460.84"/>
    </edge>
    <edge id=":V0025_2" function="internal">
        <lane id=":V0025_2_0" index="0" speed="9.00" length="14.88" shape="767.35,459.63 778.79,450.13"/>
    </edge>
    <edge id=":V0025_3" function="internal">
        <lane id=":V0025_3_0" index="0" speed="6.24" length="9.05" shape="767.35,459.63 769.50,458.31 771.48,458.07 773.29,458.91 774.93,460.84"/>
    </edge>
    <edge id=":V0026_0" function="internal">
        <lane id=":V0026_0_0" index="0" speed="5.59" length="9.35" shape="605.74,268.60 607.21,271.06 608.79,271.95 610.48,271.28 612.27,269.05"/>
        <lane id=":V0026_0_1" index="1" speed="7.38" length="17.45" shape="602.81,269.89 605.56,274.47 608.51,276.13 611.65,274.89 615.00,270.72"/>
    </edge>
    <edge id=":V0026_2" function="internal">
        <lane id=":V0026_2_0" index="0" speed="11.50" length="20.41" shape="602.81,269.89 605.67,275.16 608.34,278.52 611.01,281.88 613.87,287.15"/>
        <lane id=":V0026_2_1" index="1" speed="11.50" length="20.41" shape="602.81,269.89 610.94,288.43"/>
    </edge>
    <edge id=":V0026_4" function="internal">
        <lane id=":V0026_4_0" index="0" speed="19.50" length="20.25" shape="601.69,286.31 612.27,269.05"/>
        <lane id=":V0026_4_1" index="1" speed="19.50" length="20.25" shape="604.41,287.99 615.00,270.72"/>
    </edge>
    <edge id=":V0026_6" function="internal">
        <lane id=":V0026_6_0" index="0" speed="5.59" length="9.35" shape="604.41,287.99 606.21,285.76 607.89,285.09 609.47,285.98 610.94,288.43"/>
    </edge>
    <edge id=":V0027_0" function="internal">
        <lane id=":V0027_0_0" index="0" speed="24.00" length="28.77" shape="960.43,739.11 962.98,745.30 965.60,750.76 968.97,756.75 973.77,764.54"/>
        <lane id=":V0027_0_1" index="1" speed="24.00" length="29.06" shape="957.45,740.28 960.01,746.49 962.65,752.02 966.05,758.10 970.89,765.98"/>
    </edge>
    <edge id=":V0027_2" function="internal">
        <lane id=":V0027_2_0" index="0" speed="22.50" length="33.79" shape="957.45,740.28 961.07,746.75 965.87,752.95 971.02,760.02 975.66,769.11"/>
        <lane id=":V0027_2_1" index="1" speed="22.50" length="33.79" shape="957.45,740.28 960.61,746.93 964.38,753.53 968.50,761.01 972.68,770.28"/>
        <lane id=":V0027_2_2" index="2" speed="22.50" length="33.79" shape="957.45,740.28 969.70,771.44"/>
    </edge>
    <edge id=":V0027_5" function="internal">
        <lane id=":V0027_5_0" index="0" speed="22.50" length="21.29" shape="957.09,750.07 960.00,752.80 964.22,755.39 969.05,758.93 973.77,764.54"/>
        <lane id=":V0027_5_1" index="1" speed="22.50" length="21.29" shape="957.09,750.07 959.59,753.09 962.89,756.27 966.75,760.33 970.89,765.98"/>
        <lane id=":V0027_5_2" index="2" speed="22.50" length="21.29" shape="957.09,750.07 968.02,767.42"/>
    </edge>
    <edge id=":V0027_8" function="internal">