<?xml version="1.0" encoding="UTF-8"?>

<!-- generated on 2023-06-26 02:05:26 by Eclipse SUMO netconvert Version 1.16.0
<configuration xmlns:xsi="http://www.w3.org/2001/XMLSchema-instance" xsi:noNamespaceSchemaLocation="http://sumo.dlr.de/xsd/netconvertConfiguration.xsd">

    <input>
        <node-files value="data/simulationConfigurations/tests/18\18.nod.xml"/>
        <edge-files value="data/simulationConfigurations/tests/18\18.edg.xml"/>
    </input>

    <output>
        <output-file value="data/simulationConfigurations/tests/18\18.net.xml"/>
    </output>

</configuration>
-->

<net version="1.16" junctionCornerDetail="5" limitTurnSpeed="5.50" xmlns:xsi="http://www.w3.org/2001/XMLSchema-instance" xsi:noNamespaceSchemaLocation="http://sumo.dlr.de/xsd/net_file.xsd">

    <location netOffset="-81.38,-55.47" convBoundary="0.00,0.00,919.62,993.39" origBoundary="81.38,55.47,1001.01,1048.86" projParameter="!"/>

    <edge id=":V0001_0" function="internal">
        <lane id=":V0001_0_0" index="0" speed="3.59" length="4.00" shape="227.16,20.37 230.95,19.08"/>
    </edge>
    <edge id=":V0001_1" function="internal">
        <lane id=":V0001_1_0" index="0" speed="3.02" length="1.87" shape="227.16,20.37 226.90,19.81 226.63,19.27 226.39,18.99 226.22,19.21"/>
        <lane id=":V0001_1_1" index="1" speed="5.94" length="12.23" shape="230.22,19.33 227.89,15.58 225.92,14.19 224.33,15.16 223.11,18.49"/>
    </edge>
    <edge id=":V0001_3" function="internal">
        <lane id=":V0001_3_0" index="0" speed="9.31" length="27.07" shape="230.22,19.33 228.15,12.53 227.78,4.60 229.60,-1.94 234.14,-4.56"/>
        <lane id=":V0001_3_1" index="1" speed="8.35" length="21.48" shape="233.28,18.28 231.37,12.73 230.49,6.21 231.19,0.82 234.05,-1.37"/>
    </edge>
    <edge id=":V0001_5" function="internal">
        <lane id=":V0001_5_0" index="0" speed="6.88" length="20.74" shape="233.28,18.28 227.52,15.49 225.28,12.21 226.56,8.46 231.35,4.21"/>
    </edge>
    <edge id=":V0001_6" function="internal">
        <lane id=":V0001_6_0" index="0" speed="16.50" length="13.37" shape="220.98,-4.07 224.85,-4.63 227.53,-4.80 230.22,-4.72 234.14,-4.56"/>
        <lane id=":V0001_6_1" index="1" speed="16.50" length="13.37" shape="220.98,-4.07 224.86,-4.14 227.48,-3.20 230.12,-2.02 234.05,-1.37"/>
    </edge>
    <edge id=":V0001_8" function="internal">
        <lane id=":V0001_8_0" index="0" speed="10.02" length="13.58" shape="220.98,-4.07 222.75,-3.74 225.07,-2.25 227.94,0.40 231.35,4.21"/>
    </edge>
    <edge id=":V0001_9" function="internal">
        <lane id=":V0001_9_0" index="0" speed="10.18" length="23.26" shape="221.51,-0.91 224.16,-0.01 226.62,3.62 228.88,9.98 230.95,19.08"/>
    </edge>
    <edge id=":V0001_10" function="internal">
        <lane id=":V0001_10_0" index="0" speed="8.35" length="20.22" shape="221.51,-0.91 223.30,1.00 224.04,6.22 223.92,12.72 223.11,18.49"/>
    </edge>
    <edge id=":V0002_0" function="internal">
        <lane id=":V0002_0_0" index="0" speed="12.31" length="30.80" shape="795.56,11.31 804.20,12.62 810.68,15.99 815.02,21.42 817.20,28.91"/>
    </edge>
    <edge id=":V0002_1" function="internal">
        <lane id=":V0002_1_0" index="0" speed="10.10" length="31.33" shape="795.56,11.31 804.98,12.53 811.79,15.76 814.81,21.19 812.87,29.04"/>
        <lane id=":V0002_1_1" index="1" speed="9.49" length="27.51" shape="795.56,11.31 803.71,12.49 809.45,15.55 811.86,20.55 810.04,27.55"/>
    </edge>
    <edge id=":V0002_3" function="internal">
        <lane id=":V0002_3_0" index="0" speed="6.91" length="19.41" shape="795.64,14.52 800.31,16.37 802.38,20.46 801.63,25.07 797.80,28.48"/>
        <lane id=":V0002_3_1" index="1" speed="6.19" length="15.17" shape="795.64,14.52 799.17,15.98 800.54,19.21 799.69,22.84 796.58,25.52"/>
    </edge>
    <edge id=":V0002_5" function="internal">
        <lane id=":V0002_5_0" index="0" speed="4.04" length="6.13" shape="795.64,14.52 797.24,15.53 797.79,16.56 797.29,17.63 795.74,18.71"/>
    </edge>
    <edge id=":V0003_0" function="internal">
        <lane id=":V0003_0_0" index="0" speed="9.43" length="10.19" shape="676.82,286.89 676.46,288.43 676.70,290.56 677.52,293.29 678.93,296.62"/>
        <lane id=":V0003_0_1" index="1" speed="10.00" length="11.53" shape="676.82,286.89 675.58,289.84 675.04,292.67 675.19,295.38 676.04,297.98"/>
        <lane id=":V0003_0_2" index="2" speed="10.69" length="13.25" shape="676.82,286.89 674.70,291.25 673.38,294.78 672.86,297.48 673.14,299.34"/>
    </edge>
    <edge id=":V0003_3" function="internal">
        <lane id=":V0003_3_0" index="0" speed="14.00" length="19.25" shape="676.82,286.89 673.72,292.46 671.21,296.83 669.43,300.55 668.51,304.15"/>
    </edge>
    <edge id=":V0003_4" function="internal">
        <lane id=":V0003_4_0" index="0" speed="11.50" length="19.02" shape="676.82,286.89 674.06,292.01 671.83,295.36 669.05,298.25 664.60,302.00"/>
        <lane id=":V0003_4_1" index="1" speed="11.50" length="19.02" shape="673.99,285.40 671.41,290.18 669.33,293.31 666.73,296.02 662.58,299.52"/>
    </edge>
    <edge id=":V0004_0" function="internal">
        <lane id=":V0004_0_0" index="0" speed="13.46" length="38.81" shape="916.95,793.97 918.28,809.04 917.82,820.13 915.57,827.25 911.54,830.39"/>
    </edge>
    <edge id=":V0004_1" function="internal">
        <lane id=":V0004_1_0" index="0" speed="10.50" length="43.49" shape="916.95,793.97 917.77,807.31 915.72,817.61 909.66,823.47 898.47,823.52"/>
    </edge>
    <edge id=":V0004_2" function="internal">
        <lane id=":V0004_2_0" index="0" speed="10.76" length="44.02" shape="916.95,793.97 915.22,805.61 908.07,812.57 897.92,813.81 887.20,808.30"/>
    </edge>
    <edge id=":V0004_3" function="internal">
        <lane id=":V0004_3_0" index="0" speed="13.32" length="47.77" shape="910.22,788.08 916.61,803.21 919.87,815.99 918.63,825.39 911.54,830.39"/>
    </edge>
    <edge id=":V0004_4" function="internal">
        <lane id=":V0004_4_0" index="0" speed="10.00" length="45.65" shape="907.33,789.45 912.13,802.87 913.16,814.80 909.06,822.57 898.47,823.52"/>
    </edge>
    <edge id=":V0004_5" function="internal">
        <lane id=":V0004_5_0" index="0" speed="8.33" length="29.36" shape="904.43,790.81 905.45,798.82 902.10,805.39 896.16,808.46 889.38,805.96"/>
        <lane id=":V0004_5_1" index="1" speed="7.72" length="24.96" shape="904.43,790.81 905.28,797.61 902.41,803.17 897.33,805.75 891.57,803.62"/>
    </edge>
    <edge id=":V0004_7" function="internal">
        <lane id=":V0004_7_0" index="0" speed="12.09" length="45.79" shape="901.56,792.88 911.07,805.22 917.36,816.51 918.24,825.37 911.54,830.39"/>
    </edge>
    <edge id=":V0004_8" function="internal">
        <lane id=":V0004_8_0" index="0" speed="9.84" length="37.64" shape="899.36,795.24 905.64,805.24 908.44,815.24 906.48,822.31 898.47,823.52"/>
    </edge>
    <edge id=":V0004_9" function="internal">
        <lane id=":V0004_9_0" index="0" speed="5.34" length="12.00" shape="897.17,797.60 898.02,801.20 897.37,803.41 895.22,804.21 891.57,803.62"/>
    </edge>
    <edge id=":V0005_0" function="internal">
        <lane id=":V0005_0_0" index="0" speed="5.65" length="9.26" shape="281.89,256.21 279.59,254.62 277.76,254.45 276.40,255.68 275.50,258.32"/>
        <lane id=":V0005_0_1" index="1" speed="7.40" length="16.92" shape="284.03,253.83 279.84,250.94 276.49,250.62 274.00,252.87 272.36,257.70"/>
    </edge>
    <edge id=":V0005_2" function="internal">
        <lane id=":V0005_2_0" index="0" speed="10.50" length="18.11" shape="279.55,241.56 277.47,243.24 275.58,246.49 273.88,251.31 272.36,257.70"/>
        <lane id=":V0005_2_1" index="1" speed="10.50" length="21.21" shape="278.33,238.60 275.54,240.67 273.09,244.44 270.99,249.91 269.22,257.07"/>
    </edge>
    <edge id=":V0005_4" function="internal">
        <lane id=":V0005_4_0" index="0" speed="14.50" length="22.31" shape="271.71,235.01 272.02,239.00 271.63,243.80 270.65,249.72 269.22,257.07"/>
    </edge>
    <edge id=":V0008_0" function="internal">
        <lane id=":V0008_0_0" index="0" speed="11.50" length="17.62" shape="621.67,758.43 618.11,758.19 614.47,759.10 610.36,761.06 605.39,763.94"/>
    </edge>
    <edge id=":V0008_1" function="internal">
        <lane id=":V0008_1_0" index="0" speed="10.00" length="26.59" shape="621.67,758.43 614.75,756.17 608.96,752.90 604.31,748.63 600.78,743.35"/>
    </edge>
    <edge id=":V0008_2" function="internal">
        <lane id=":V0008_2_0" index="0" speed="12.00" length="29.99" shape="618.70,738.16 616.99,746.99 614.20,754.23 610.33,759.88 605.39,763.94"/>
        <lane id=":V0008_2_1" index="1" speed="12.00" length="27.08" shape="615.52,737.77 613.98,745.87 611.50,752.47 608.09,757.58 603.75,761.19"/>
    </edge>
    <edge id=":V0008_4" function="internal">
        <lane id=":V0008_4_0" index="0" speed="6.72" length="16.96" shape="615.52,737.77 613.76,742.23 610.47,744.80 606.74,744.91 603.67,741.97"/>
    </edge>
    <edge id=":V0008_5" function="internal">
        <lane id=":V0008_5_0" index="0" speed="7.86" length="27.59" shape="609.36,739.23 602.36,731.62 599.08,729.54 599.52,732.99 603.67,741.97"/>
    </edge>
    <edge id=":V0008_6" function="internal">
        <lane id=":V0008_6_0" index="0" speed="10.35" length="12.72" shape="606.38,740.66 611.13,747.75 612.06,751.83"/>
        <lane id=":V0008_6_1" index="1" speed="9.39" length="7.27" shape="603.40,742.10 607.51,748.09"/>
    </edge>
    <edge id=":V0008_8" function="internal">
        <lane id=":V0008_8_0" index="0" speed="10.35" length="14.89" shape="612.06,751.83 612.55,754.00 610.63,759.39 605.39,763.94"/>
    </edge>
    <edge id=":V0008_9" function="internal">
        <lane id=":V0008_9_0" index="0" speed="9.39" length="15.23" shape="607.51,748.09 608.95,753.26 607.69,757.63 603.75,761.19"/>
    </edge>
    <edge id=":V0009_0" function="internal">
        <lane id=":V0009_0_0" index="0" speed="5.50" length="9.34" shape="13.21,42.44 10.38,42.88 9.05,43.98 9.20,45.77 10.84,48.22"/>
    </edge>
    <edge id=":V0009_1" function="internal">
        <lane id=":V0009_1_0" index="0" speed="6.99" length="12.12" shape="13.21,42.44 8.67,42.86 5.58,43.83 3.93,45.35 3.73,47.42"/>
    </edge>
    <edge id=":V0009_2" function="internal">
        <lane id=":V0009_2_0" index="0" speed="4.35" length="7.24" shape="12.70,39.26 10.67,38.33 9.86,37.20 10.28,35.88 11.92,34.36"/>
    </edge>
    <edge id=":V0011_0" function="internal">
        <lane id=":V0011_0_0" index="0" speed="6.67" length="8.94" shape="335.11,224.27 333.76,222.40 332.04,221.37 329.95,221.18 327.50,221.84"/>
    </edge>
    <edge id=":V0011_1" function="internal">
        <lane id=":V0011_1_0" index="0" speed="14.00" length="13.78" shape="335.11,224.27 328.83,212.00"/>
        <lane id=":V0011_1_1" index="1" speed="14.00" length="13.78" shape="337.96,222.81 331.68,210.54"/>
    </edge>
    <edge id=":V0011_3" function="internal">
        <lane id=":V0011_3_0" index="0" speed="9.00" length="14.27" shape="339.28,213.54 336.43,215.25 334.16,217.38 331.51,219.66 327.50,221.84"/>
        <lane id=":V0011_3_1" index="1" speed="9.00" length="14.27" shape="339.28,213.54 326.29,218.88"/>
    </edge>
    <edge id=":V0011_5" function="internal">
        <lane id=":V0011_5_0" index="0" speed="6.74" length="9.16" shape="339.28,213.54 336.93,214.13 334.88,213.82 333.13,212.63 331.68,210.54"/>
    </edge>
    <edge id=":V0012_0" function="internal">
        <lane id=":V0012_0_0" index="0" speed="7.31" length="9.43" shape="227.96,40.01 225.03,40.35 222.79,41.20 221.26,42.55 220.42,44.41"/>
    </edge>
    <edge id=":V0012_1" function="internal">
        <lane id=":V0012_1_0" index="0" speed="12.50" length="14.21" shape="227.87,36.81 213.67,37.19"/>
        <lane id=":V0012_1_1" index="1" speed="12.50" length="14.21" shape="227.79,33.61 213.59,33.99"/>
    </edge>
    <edge id=":V0012_3" function="internal">
        <lane id=":V0012_3_0" index="0" speed="14.00" length="16.11" shape="224.04,28.71 220.42,44.41"/>
        <lane id=":V0012_3_1" index="1" speed="14.00" length="16.11" shape="220.92,27.99 217.30,43.69"/>
    </edge>
    <edge id=":V0012_5" function="internal">
        <lane id=":V0012_5_0" index="0" speed="7.62" length="10.30" shape="220.92,27.99 219.96,30.56 218.41,32.41 216.29,33.55 213.59,33.99"/>
    </edge>
    <edge id=":V0013_0" function="internal">
        <lane id=":V0013_0_0" index="0" speed="10.51" length="12.37" shape="262.22,325.21 261.45,329.76 261.15,333.30 261.33,335.83 261.97,337.37"/>
    </edge>
    <edge id=":V0013_1" function="internal">
        <lane id=":V0013_1_0" index="0" speed="18.50" length="14.98" shape="259.08,324.59 257.67,329.12 255.91,332.32 254.24,335.07 253.10,338.24"/>
    </edge>
    <edge id=":V0013_2" function="internal">
        <lane id=":V0013_2_0" index="0" speed="16.50" length="16.11" shape="251.52,325.12 261.97,337.37"/>
        <lane id=":V0013_2_1" index="1" speed="16.50" length="16.11" shape="249.08,327.20 259.54,339.45"/>
    </edge>
    <edge id=":V0013_4" function="internal">
        <lane id=":V0013_4_0" index="0" speed="10.42" length="12.15" shape="249.08,327.20 251.22,330.10 252.61,332.91 253.23,335.62 253.10,338.24"/>
    </edge>
    <edge id=":V0014_0" function="internal">
        <lane id=":V0014_0_0" index="0" speed="6.98" length="11.85" shape="234.07,33.45 233.90,35.14 234.52,38.92 235.37,42.87 235.86,45.10"/>
    </edge>
    <edge id=":V0014_1" function="internal">
        <lane id=":V0014_1_0" index="0" speed="16.00" length="7.54" shape="234.07,33.45 231.92,34.51 231.14,36.73 230.36,38.95 228.21,40.01"/>
        <lane id=":V0014_1_1" index="1" speed="16.00" length="7.54" shape="234.07,33.45 232.18,34.00 231.10,35.13 230.01,36.26 228.12,36.81"/>
        <lane id=":V0014_1_2" index="2" speed="16.00" length="7.54" shape="234.07,33.45 228.04,33.61"/>
    </edge>
    <edge id=":V0014_4" function="internal">
        <lane id=":V0014_4_0" index="0" speed="11.50" length="17.72" shape="232.58,27.68 235.86,45.10"/>
    </edge>
    <edge id=":V0014_5" function="internal">
        <lane id=":V0014_5_0" index="0" speed="6.99" length="11.86" shape="232.58,27.68 232.93,31.61 232.31,34.44 230.71,36.18 228.12,36.81"/>
        <lane id=":V0014_5_1" index="1" speed="6.13" length="8.86" shape="232.58,27.68 232.70,30.22 231.99,32.05 230.43,33.18 228.04,33.61"/>
    </edge>
    <edge id=":V0015_0" function="internal">
        <lane id=":V0015_0_0" index="0" speed="6.54" length="8.09" shape="493.69,452.19 491.89,450.96 490.07,450.52 488.24,450.87 486.38,452.01"/>
        <lane id=":V0015_0_1" index="1" speed="8.04" length="12.71" shape="495.83,449.81 493.01,447.89 490.15,447.20 487.27,447.75 484.35,449.53"/>
    </edge>
    <edge id=":V0015_2" function="internal">
        <lane id=":V0015_2_0" index="0" speed="10.50" length="16.32" shape="497.98,447.44 494.06,444.57 490.93,443.22 487.80,441.87 483.88,439.00"/>
        <lane id=":V0015_2_1" index="1" speed="10.50" length="16.32" shape="497.98,447.44 486.03,436.63"/>
    </edge>
    <edge id=":V0015_4" function="internal">
        <lane id=":V0015_4_0" index="0" speed="16.50" length="15.83" shape="494.42,437.15 492.09,439.71 490.25,442.63 487.99,445.91 484.35,449.53"/>
        <lane id=":V0015_4_1" index="1" speed="16.50" length="15.83" shape="494.42,437.15 482.33,447.05"/>
    </edge>
    <edge id=":V0015_6" function="internal">
        <lane id=":V0015_6_0" index="0" speed="6.96" length="9.30" shape="494.42,437.15 492.36,438.38 490.27,438.70 488.16,438.12 486.03,436.63"/>
    </edge>
    <edge id=":V0016_0" function="internal">
        <lane id=":V0016_0_0" index="0" speed="14.00" length="22.00" shape="646.29,485.94 646.97,487.96 649.31,491.61 653.30,496.88 658.95,503.79"/>
    </edge>
    <edge id=":V0016_1" function="internal">
        <lane id=":V0016_1_0" index="0" speed="13.50" length="23.03" shape="646.29,485.94 646.80,490.02 648.41,495.03 649.86,501.29 649.91,509.13"/>
        <lane id=":V0016_1_1" index="1" speed="13.50" length="23.03" shape="646.29,485.94 646.30,490.00 646.80,494.95 647.16,501.10 646.73,508.74"/>
        <lane id=":V0016_1_2" index="2" speed="13.50" length="23.03" shape="646.29,485.94 643.55,508.35"/>
    </edge>
    <edge id=":V0016_4" function="internal">
        <lane id=":V0016_4_0" index="0" speed="20.50" length="22.58" shape="641.98,488.54 656.50,505.84"/>
        <lane id=":V0016_4_1" index="1" speed="20.50" length="22.58" shape="639.53,490.60 654.05,507.90"/>
    </edge>
    <edge id=":V0016_6" function="internal">
        <lane id=":V0016_6_0" index="0" speed="14.21" length="20.04" shape="639.53,490.60 643.06,495.41 645.44,500.03 646.66,504.48 646.73,508.74"/>
        <lane id=":V0016_6_1" index="1" speed="13.74" length="18.71" shape="639.53,490.60 641.81,494.13 643.24,498.26 643.82,503.00 643.55,508.35"/>
    </edge>
    <edge id=":V0017_0" function="internal">
        <lane id=":V0017_0_0" index="0" speed="6.93" length="12.82" shape="401.85,191.28 397.70,193.38 395.31,195.56 394.67,197.82 395.78,200.15"/>
    </edge>
    <edge id=":V0017_1" function="internal">
        <lane id=":V0017_1_0" index="0" speed="19.50" length="18.07" shape="400.63,188.32 383.92,195.19"/>
    </edge>
    <edge id=":V0017_2" function="internal">
        <lane id=":V0017_2_0" index="0" speed="21.50" length="17.24" shape="390.57,183.98 393.23,188.71 394.01,193.07 394.38,196.92 395.78,200.15"/>
    </edge>
    <edge id=":V0017_3" function="internal">
        <lane id=":V0017_3_0" index="0" speed="5.94" length="9.09" shape="385.66,188.10 387.05,190.32 387.22,192.24 386.17,193.86 383.92,195.19"/>
    </edge>
    <edge id=":V0018_0" function="internal">
        <lane id=":V0018_0_0" index="0" speed="18.50" length="42.42" shape="423.98,390.87 419.65,385.00 411.80,375.92 402.98,366.41 395.77,359.26"/>
    </edge>
    <edge id=":V0018_1" function="internal">
        <lane id=":V0018_1_0" index="0" speed="15.00" length="43.01" shape="423.98,390.87 401.56,354.10"/>
        <lane id=":V0018_1_1" index="1" speed="15.00" length="43.01" shape="423.98,390.87 404.41,352.64"/>
    </edge>
    <edge id=":V0018_3" function="internal">
        <lane id=":V0018_3_0" index="0" speed="17.00" length="42.95" shape="427.62,388.08 395.77,359.26"/>
        <lane id=":V0018_3_1" index="1" speed="17.00" length="42.95" shape="429.76,385.71 397.92,356.89"/>
    </edge>
    <edge id=":V0018_5" function="internal">
        <lane id=":V0018_5_0" index="0" speed="13.50" length="41.79" shape="429.76,385.71 423.31,378.96 416.01,370.00 409.25,360.62 404.41,352.64"/>
    </edge>
    <edge id=":V0019_0" function="internal">
        <lane id=":V0019_0_0" index="0" speed="10.21" length="15.66" shape="243.64,45.55 240.72,40.22 238.18,36.43 236.03,34.17 234.27,33.44"/>
    </edge>
    <edge id=":V0019_1" function="internal">
        <lane id=":V0019_1_0" index="0" speed="17.00" length="20.50" shape="243.64,45.55 240.49,40.48 237.64,37.34 234.77,34.15 231.55,28.95"/>
        <lane id=":V0019_1_1" index="1" speed="17.00" length="20.50" shape="246.49,44.09 243.34,39.03 240.49,35.88 237.62,32.69 234.40,27.49"/>
        <lane id=":V0019_1_2" index="2" speed="17.00" length="20.50" shape="246.49,44.09 237.25,26.03"/>
    </edge>
    <edge id=":V0019_4" function="internal">
        <lane id=":V0019_4_0" index="0" speed="19.50" length="15.89" shape="248.65,39.47 243.82,38.60 240.42,36.48 237.53,34.36 234.27,33.44"/>
    </edge>
    <edge id=":V0019_5" function="internal">
        <lane id=":V0019_5_0" index="0" speed="10.82" length="17.65" shape="248.57,36.27 244.10,35.82 240.25,34.20 237.02,31.43 234.40,27.49"/>
        <lane id=":V0019_5_1" index="1" speed="9.69" length="14.04" shape="248.49,33.07 244.96,32.71 241.91,31.41 239.34,29.19 237.25,26.03"/>
    </edge>
    <edge id=":V0020_0" function="internal">
        <lane id=":V0020_0_0" index="0" speed="10.00" length="14.28" shape="176.91,233.33 177.02,235.40 178.18,238.14 180.37,241.53 183.60,245.59"/>
    </edge>
    <edge id=":V0020_1" function="internal">
        <lane id=":V0020_1_0" index="0" speed="13.00" length="15.42" shape="176.91,233.33 176.38,237.86 176.77,241.05 177.16,244.25 176.63,248.78"/>
        <lane id=":V0020_1_1" index="1" speed="13.00" length="15.42" shape="173.79,232.61 173.26,237.14 173.65,240.34 174.04,243.53 173.51,248.06"/>
        <lane id=":V0020_1_2" index="2" speed="13.00" length="15.42" shape="173.79,232.61 170.39,247.35"/>
    </edge>
    <edge id=":V0020_4" function="internal">
        <lane id=":V0020_4_0" index="0" speed="11.50" length="18.35" shape="169.25,233.72 181.17,247.67"/>
    </edge>
    <edge id=":V0020_5" function="internal">
        <lane id=":V0020_5_0" index="0" speed="11.47" length="15.53" shape="169.25,233.72 171.75,237.23 173.30,240.79 173.88,244.40 173.51,248.06"/>
        <lane id=":V0020_5_1" index="1" speed="10.96" length="14.11" shape="169.25,233.72 170.59,236.05 171.22,239.10 171.16,242.86 170.39,247.35"/>
    </edge>
    <edge id=":V0021_0" function="internal">
        <lane id=":V0021_0_0" index="0" speed="6.46" length="9.03" shape="418.75,507.36 417.08,509.19 416.40,511.10 416.73,513.11 418.05,515.21"/>
        <lane id=":V0021_0_1" index="1" speed="7.96" length="14.27" shape="416.73,504.88 414.08,507.77 413.01,510.80 413.52,513.97 415.62,517.29"/>
    </edge>
    <edge id=":V0021_2" function="internal">
        <lane id=":V0021_2_0" index="0" speed="17.50" length="17.80" shape="414.70,502.40 400.92,513.68"/>
    </edge>
    <edge id=":V0021_3" function="internal">
        <lane id=":V0021_3_0" index="0" speed="20.00" length="17.80" shape="404.06,503.75 415.62,517.29"/>
        <lane id=":V0021_3_1" index="1" speed="20.00" length="17.80" shape="401.63,505.83 413.19,519.37"/>
    </edge>
    <edge id=":V0021_5" function="internal">
        <lane id=":V0021_5_0" index="0" speed="6.46" length="9.03" shape="401.63,505.83 402.95,507.92 403.28,509.93 402.60,511.85 400.92,513.68"/>
    </edge>
    <edge id=":V0022_0" function="internal">
        <lane id=":V0022_0_0" index="0" speed="5.58" length="9.36" shape="642.97,587.28 640.62,585.64 638.82,585.47 637.56,586.78 636.86,589.56"/>
    </edge>
    <edge id=":V0022_1" function="internal">
        <lane id=":V0022_1_0" index="0" speed="16.50" length="22.60" shape="642.97,587.28 626.22,572.12"/>
        <lane id=":V0022_1_1" index="1" speed="16.50" length="22.60" shape="645.12,584.91 628.36,569.74"/>
        <lane id=":V0022_1_2" index="2" speed="16.50" length="22.60" shape="647.27,582.53 630.51,567.37"/>
    </edge>
    <edge id=":V0022_4" function="internal">
        <lane id=":V0022_4_0" index="0" speed="13.00" length="24.91" shape="642.98,565.87 641.57,573.30 639.82,578.54 638.12,583.38 636.86,589.56"/>
        <lane id=":V0022_4_1" index="1" speed="13.00" length="24.91" shape="642.98,565.87 641.05,573.37 638.21,578.47 635.43,583.09 633.68,589.17"/>
    </edge>
    <edge id=":V0022_6" function="internal">
        <lane id=":V0022_6_0" index="0" speed="7.38" length="17.50" shape="639.80,565.48 638.48,570.68 636.14,573.13 632.76,572.81 628.36,569.74"/>
        <lane id=":V0022_6_1" index="1" speed="5.58" length="9.36" shape="636.62,565.09 635.92,567.87 634.67,569.18 632.86,569.01 630.51,567.37"/>
    </edge>
    <edge id=":V0023_0" function="internal">
        <lane id=":V0023_0_0" index="0" speed="6.48" length="9.03" shape="562.74,385.37 561.06,387.20 560.38,389.12 560.69,391.13 562.00,393.24"/>
        <lane id=":V0023_0_1" index="1" speed="7.98" length="14.24" shape="560.71,382.90 558.07,385.78 556.99,388.80 557.49,391.98 559.55,395.30"/>
    </edge>
    <edge id=":V0023_2" function="internal">
        <lane id=":V0023_2_0" index="0" speed="15.50" length="14.48" shape="560.71,382.90 549.50,392.07"/>
    </edge>
    <edge id=":V0023_3" function="internal">
        <lane id=":V0023_3_0" index="0" speed="22.00" length="14.48" shape="550.24,384.20 559.55,395.30"/>
    </edge>
    <edge id=":V0023_4" function="internal">
        <lane id=":V0023_4_0" index="0" speed="6.48" length="9.03" shape="550.24,384.20 551.55,386.31 551.86,388.32 551.18,390.24 549.50,392.07"/>
    </edge>
    <edge id=":V0024_0" function="internal">
        <lane id=":V0024_0_0" index="0" speed="5.54" length="9.46" shape="273.53,35.62 270.62,36.05 269.22,37.16 269.32,38.95 270.92,41.41"/>
        <lane id=":V0024_0_1" index="1" speed="7.38" length="18.03" shape="273.45,32.42 267.91,33.24 265.23,35.36 265.42,38.77 268.47,43.47"/>
    </edge>
    <edge id=":V0024_2" function="internal">
        <lane id=":V0024_2_0" index="0" speed="20.00" length="25.20" shape="273.45,32.42 267.19,33.58 262.20,35.91 256.69,38.26 248.85,39.46"/>
        <lane id=":V0024_2_1" index="1" speed="20.00" length="25.20" shape="273.45,32.42 267.13,33.08 262.04,34.32 256.49,35.56 248.77,36.26"/>
        <lane id=":V0024_2_2" index="2" speed="20.00" length="25.20" shape="273.45,32.42 248.69,33.07"/>
    </edge>
    <edge id=":V0024_5" function="internal">
        <lane id=":V0024_5_0" index="0" speed="24.00" length="23.94" shape="250.71,27.28 253.75,30.13 257.90,33.36 262.89,37.60 268.47,43.47"/>
        <lane id=":V0024_5_1" index="1" speed="24.00" length="23.94" shape="250.71,27.28 266.02,45.53"/>
    </edge>
    <edge id=":V0024_7" function="internal">
        <lane id=":V0024_7_0" index="0" speed="6.46" length="13.43" shape="250.71,27.28 253.34,31.12 253.89,33.90 252.37,35.61 248.77,36.26"/>
        <lane id=":V0024_7_1" index="1" speed="5.44" length="9.08" shape="250.71,27.28 252.35,29.75 252.56,31.53 251.34,32.64 248.69,33.07"/>
    </edge>
    <edge id=":V0025_0" function="internal">
        <lane id=":V0025_0_0" index="0" speed="6.10" length="9.06" shape="464.64,477.35 463.16,475.26 461.44,474.31 459.48,474.49 457.29,475.82"/>
        <lane id=":V0025_0_1" index="1" speed="7.67" length="15.07" shape="467.49,475.90 465.03,472.42 462.17,470.83 458.91,471.14 455.26,473.34"/>
    </edge>
    <edge id=":V0025_2" function="internal">
        <lane id=":V0025_2_0" index="0" speed="11.00" length="19.20" shape="467.49,475.90 458.74,458.80"/>
    </edge>
    <edge id=":V0025_3" function="internal">
        <lane id=":V0025_3_0" index="0" speed="13.00" length="16.62" shape="470.15,465.29 457.29,475.82"/>
        <lane id=":V0025_3_1" index="1" speed="13.00" length="16.62" shape="468.12,462.81 455.26,473.34"/>
        <lane id=":V0025_3_2" index="2" speed="13.00" length="16.62" shape="466.10,460.34 453.23,470.87"/>
    </edge>
    <edge id=":V0025_6" function="internal">
        <lane id=":V0025_6_0" index="0" speed="6.10" length="9.06" shape="466.10,460.34 463.90,461.66 461.94,461.85 460.22,460.89 458.74,458.80"/>
    </edge>

    <edge id="E0001" from="V0001" to="V0002" priority="-1">
        <lane id="E0001_0" index="0" speed="16.00" length="561.73" shape="234.14,-4.56 795.56,11.31"/>
        <lane id="E0001_1" index="1" speed="16.00" length="561.73" shape="234.05,-1.37 795.64,14.52"/>
    </edge>
    <edge id="E0003" from="V0002" to="V0003" priority="-1">
        <lane id="E0003_0" index="0" speed="16.00" length="291.55" shape="812.87,29.04 676.82,286.89"/>
        <lane id="E0003_1" index="1" speed="16.00" length="291.55" shape="810.04,27.55 673.99,285.40"/>
    </edge>
    <edge id="E0005" from="V0002" to="V0004" priority="-1">
        <lane id="E0005_0" index="0" speed="11.00" length="771.53" shape="817.20,28.91 916.95,793.97"/>
    </edge>
    <edge id="E0013" from="V0004" to="V0008" priority="-1">
        <lane id="E0013_0" index="0" speed="10.00" length="284.35" shape="898.47,823.52 621.67,758.43"/>
    </edge>
    <edge id="E0017" from="V0009" to="V0010" priority="-1">
        <lane id="E0017_0" index="0" speed="17.00" length="965.93" shape="3.73,47.42 212.41,990.54"/>
    </edge>
    <edge id="E0021" from="V0008" to="V0010" priority="-1">
        <lane id="E0021_0" index="0" speed="13.00" length="434.21" shape="605.39,763.94 232.49,986.40"/>
        <lane id="E0021_1" index="1" speed="13.00" length="434.21" shape="603.75,761.19 230.85,983.65"/>
    </edge>
    <edge id="E0027" from="V0004" to="V0010" priority="-1">
        <lane id="E0027_0" index="0" speed="22.00" length="696.18" shape="911.54,830.39 233.85,989.75"/>
    </edge>
    <edge id="E0033" from="V0009" to="V0001" priority="-1">
        <lane id="E0033_0" index="0" speed="17.00" length="212.53" shape="11.41,31.20 220.98,-4.07"/>
        <lane id="E0033_1" index="1" speed="17.00" length="212.53" shape="11.92,34.36 221.51,-0.91"/>
    </edge>
    <edge id="E0039" from="V0003" to="V0004" priority="-1">
        <lane id="E0039_0" index="0" speed="10.00" length="543.17" shape="678.93,296.62 910.22,788.08"/>
        <lane id="E0039_1" index="1" speed="10.00" length="543.17" shape="676.04,297.98 907.33,789.45"/>
        <lane id="E0039_2" index="2" speed="10.00" length="543.17" shape="673.14,299.34 904.43,790.81"/>
    </edge>
    <edge id="E0043" from="V0011" to="V0005" priority="-1">
        <lane id="E0043_0" index="0" speed="5.00" length="51.85" shape="327.50,221.84 279.55,241.56"/>
        <lane id="E0043_1" index="1" speed="5.00" length="51.85" shape="326.29,218.88 278.33,238.60"/>
    </edge>
    <edge id="E0046" from="V0001" to="V0012" priority="-1">
        <lane id="E0046_0" index="0" speed="21.00" length="9.75" shape="226.22,19.21 224.04,28.71"/>
        <lane id="E0046_1" index="1" speed="21.00" length="9.75" shape="223.11,18.49 220.92,27.99"/>
    </edge>
    <edge id="E0050" from="V0005" to="V0013" priority="-1">
        <lane id="E0050_0" index="0" speed="16.00" length="68.20" shape="275.50,258.32 262.22,325.21"/>
        <lane id="E0050_1" index="1" speed="16.00" length="68.20" shape="272.36,257.70 259.08,324.59"/>
        <lane id="E0050_2" index="2" speed="16.00" length="68.20" shape="269.22,257.07 255.94,323.97"/>
    </edge>
    <edge id="E0051" from="V0012" to="V0009" priority="-1">
        <lane id="E0051_0" index="0" speed="15.00" length="200.74" shape="213.67,37.19 13.21,42.44"/>