<nodes><node id="V0001" x="307.106" y="55.47046666666667" type="priority" /><node id="V0002" x="895.3733333333333" y="72.10533333333333" type="priority" /><node id="V0003" x="749.6666666666666" y="348.25266666666664" type="priority" /><node id="V0004" x="1001.0066666666667" y="882.3199999999999" type="priority" /><node id="V0005" x="352.38733333333334" y="295.35400000000004" type="priority" /><node id="V0006" x="199.22466666666665" y="523.8439999999999" type="priority" /><node id="V0007" x="262.736" y="746.8" type="priority" /><node id="V0008" x="693.2533333333333" y="809.9533333333333" type="priority" /><node id="V0009" x="81.38266666666667" y="93.46000000000001" type="priority" /><node id="V0010" x="292.78266666666667" y="1048.86" type="priority" /><node id="V0011" x="416.4066666666667" y="269.032" type="priority" /><node id="V0012" x="299.67466666666667" y="87.73333333333333" type="priority" /><node id="V0013" x="333.786" y="389.0226666666667" type="priority" /><node id="V0014" x="313.1293333333333" y="87.38000000000001" type="priority" /><node id="V0015" x="571.7553333333333" y="493.87" type="priority" /><node id="V0016" x="724.6466666666668" y="553.0086666666666" type="priority" /><node id="V0017" x="468.392" y="247.65866666666668" type="priority" /><node id="V0018" x="496.73133333333334" y="425.9773333333333" type="priority" /><node id="V0019" x="323.3006666666667" y="87.11333333333333" type="priority" /><node id="V0020" x="252.266" y="293.56266666666664" type="priority" /><node id="V0021" x="484.38933333333335" y="565.3786666666667" type="priority" /><node id="V0022" x="715.9333333333333" y="624.34" type="priority" /><node id="V0023" x="632.9693333333333" y="443.76733333333334" type="priority" /><node id="V0024" x="333.43733333333336" y="86.84733333333334" type="priority" /><node id="V0025" x="543.37" y="517.1033333333334" type="priority" /></nodes>