<configuration><input><net-file value="18.net.xml" /><route-files value="18.rou.xml" /></input><time><begin value="0" /></time></configuration>