<?xml version="1.0" encoding="UTF-8"?>

<!-- generated on 2023-06-26 02:05:27 by Eclipse SUMO netconvert Version 1.16.0
<configuration xmlns:xsi="http://www.w3.org/2001/XMLSchema-instance" xsi:noNamespaceSchemaLocation="http://sumo.dlr.de/xsd/netconvertConfiguration.xsd">

    <input>
        <node-files value="data/simulationConfigurations/tests/19\19.nod.xml"/>
        <edge-files value="data/simulationConfigurations/tests/19\19.edg.xml"/>
    </input>

    <output>
        <output-file value="data/simulationConfigurations/tests/19\19.net.xml"/>
    </output>

</configuration>
-->

<net version="1.16" junctionCornerDetail="5" limitTurnSpeed="5.50" xmlns:xsi="http://www.w3.org/2001/XMLSchema-instance" xsi:noNamespaceSchemaLocation="http://sumo.dlr.de/xsd/net_file.xsd">

    <location netOffset="-202.28,-55.93" convBoundary="0.00,0.00,841.01,976.11" origBoundary="202.28,55.93,1043.29,1032.03" projParameter="!"/>

    <edge id=":V0001_0" function="internal">
        <lane id=":V0001_0_0" index="0" speed="5.49" length="9.66" shape="57.97,191.91 55.78,194.05 55.31,195.75 56.55,197.00 59.51,197.81"/>
        <lane id=":V0001_0_1" index="1" speed="6.52" length="14.33" shape="57.97,191.91 54.45,195.26 53.45,197.89 54.97,199.80 59.02,200.98"/>
        <lane id=":V0001_0_2" index="2" speed="7.42" length="19.03" shape="57.97,191.91 53.12,196.47 51.59,200.04 53.40,202.59 58.53,204.14"/>
    </edge>
    <edge id=":V0001_3" function="internal">
        <lane id=":V0001_3_0" index="0" speed="5.50" length="26.74" shape="57.97,191.91 53.16,197.12 52.55,202.02 56.14,206.61 63.92,210.89"/>
    </edge>
    <edge id=":V0001_4" function="internal">
        <lane id=":V0001_4_0" index="0" speed="10.22" length="27.30" shape="57.97,191.91 53.74,196.79 52.94,202.21 55.54,208.17 61.57,214.67"/>
        <lane id=":V0001_4_1" index="1" speed="10.72" length="30.13" shape="57.97,191.91 52.65,197.69 51.12,203.81 53.39,210.28 59.46,217.08"/>
    </edge>
    <edge id=":V0002_0" function="internal">
        <lane id=":V0002_0_0" index="0" speed="6.90" length="20.72" shape="579.79,422.86 572.53,420.15 569.63,419.89 571.08,422.08 576.88,426.73"/>
    </edge>
    <edge id=":V0002_1" function="internal">
        <lane id=":V0002_1_0" index="0" speed="9.13" length="27.86" shape="579.79,422.86 582.98,426.44 580.54,431.21 574.38,436.54 566.38,441.78"/>
    </edge>
    <edge id=":V0002_2" function="internal">
        <lane id=":V0002_2_0" index="0" speed="6.79" length="17.52" shape="577.80,425.50 581.66,427.76 581.92,429.82 578.57,431.68 571.63,433.33"/>
    </edge>
    <edge id=":V0002_3" function="internal">
        <lane id=":V0002_3_0" index="0" speed="5.80" length="13.31" shape="569.47,445.23 572.12,441.31 572.49,439.43 570.58,439.58 566.38,441.78"/>
    </edge>
    <edge id=":V0002_4" function="internal">
        <lane id=":V0002_4_0" index="0" speed="6.80" length="16.27" shape="569.47,445.23 573.44,439.49 575.13,435.59 574.52,433.54 571.63,433.33"/>
    </edge>
    <edge id=":V0002_5" function="internal">
        <lane id=":V0002_5_0" index="0" speed="9.58" length="21.13" shape="569.47,445.23 574.34,438.34 577.20,432.95 578.04,429.08 576.88,426.73"/>
    </edge>
    <edge id=":V0003_0" function="internal">
        <lane id=":V0003_0_0" index="0" speed="3.68" length="4.39" shape="254.40,503.58 252.82,503.33 252.23,503.41 252.65,503.83 254.07,504.58"/>
    </edge>
    <edge id=":V0003_1" function="internal">
        <lane id=":V0003_1_0" index="0" speed="7.71" length="22.65" shape="255.42,500.52 244.95,498.70 238.20,498.16 235.15,498.89 235.80,500.89"/>
    </edge>
    <edge id=":V0003_2" function="internal">
        <lane id=":V0003_2_0" index="0" speed="6.72" length="16.74" shape="255.66,495.93 250.17,497.43 248.08,499.37 249.38,501.75 254.07,504.58"/>
    </edge>
    <edge id=":V0003_3" function="internal">
        <lane id=":V0003_3_0" index="0" speed="8.87" length="25.55" shape="254.55,489.63 243.93,492.01 237.26,494.68 234.56,497.64 235.80,500.89"/>
    </edge>
    <edge id=":V0005_0" function="internal">
        <lane id=":V0005_0_0" index="0" speed="14.00" length="13.48" shape="421.51,532.89 417.88,535.07 415.25,536.85 413.23,538.81 411.42,541.51"/>
    </edge>
    <edge id=":V0005_1" function="internal">
        <lane id=":V0005_1_0" index="0" speed="6.00" length="12.47" shape="419.86,530.15 416.78,532.27 414.55,533.85 412.18,534.63 408.68,534.36"/>
    </edge>
    <edge id=":V0005_2" function="internal">
        <lane id=":V0005_2_0" index="0" speed="8.00" length="33.44" shape="419.86,530.15 415.81,528.08 409.75,521.06 403.64,512.15 399.46,504.39"/>
        <lane id=":V0005_2_1" index="1" speed="8.00" length="33.38" shape="419.86,530.15 416.33,529.31 412.13,523.79 407.43,514.69 402.41,503.16"/>
    </edge>
    <edge id=":V0005_4" function="internal">
        <lane id=":V0005_4_0" index="0" speed="5.61" length="11.91" shape="392.49,508.49 395.80,510.99 397.57,511.34 397.81,509.55 396.50,505.61"/>
    </edge>
    <edge id=":V0005_5" function="internal">
        <lane id=":V0005_5_0" index="0" speed="14.33" length="40.33" shape="392.49,508.49 403.10,518.81 409.80,527.75 412.57,535.32 411.42,541.51"/>
    </edge>
    <edge id=":V0005_6" function="internal">
        <lane id=":V0005_6_0" index="0" speed="8.54" length="29.35" shape="392.49,508.49 398.73,514.67 405.50,522.47 409.98,528.96 409.31,531.22"/>
    </edge>
    <edge id=":V0006_0" function="internal">
        <lane id=":V0006_0_0" index="0" speed="6.69" length="19.94" shape="620.50,905.90 615.28,900.69 613.14,899.29 614.08,901.71 618.10,907.95"/>
    </edge>
    <edge id=":V0007_0" function="internal">
        <lane id=":V0007_0_0" index="0" speed="6.95" length="12.61" shape="220.76,72.73 219.22,70.67 216.93,70.11 213.91,71.07 210.13,73.54"/>
    </edge>
    <edge id=":V0007_1" function="internal">
        <lane id=":V0007_1_0" index="0" speed="10.88" length="13.29" shape="220.76,72.73 219.63,71.45 217.28,70.11 213.70,68.69 208.89,67.20"/>
        <lane id=":V0007_1_1" index="1" speed="11.94" length="16.13" shape="223.71,71.50 222.24,69.58 219.42,67.70 215.26,65.88 209.76,64.12"/>
        <lane id=":V0007_1_2" index="2" speed="12.37" length="17.34" shape="223.71,71.50 221.71,67.97 218.85,65.05 215.16,62.74 210.63,61.04"/>
    </edge>
    <edge id=":V0007_4" function="internal">
        <lane id=":V0007_4_0" index="0" speed="7.21" length="18.21" shape="223.71,71.50 221.42,64.68 221.25,60.43 223.20,58.75 227.28,59.65"/>
        <lane id=":V0007_4_1" index="1" speed="6.26" length="13.32" shape="223.71,71.50 221.99,66.44 221.81,63.27 223.15,61.99 226.03,62.60"/>
    </edge>
    <edge id=":V0008_0" function="internal">
        <lane id=":V0008_0_0" index="0" speed="6.73" length="18.18" shape="24.11,43.82 19.22,37.18 15.99,34.02 14.43,34.36 14.53,38.17"/>
        <lane id=":V0008_0_1" index="1" speed="8.92" length="33.47" shape="26.76,42.02 18.42,31.01 13.08,26.79 10.73,29.35 11.37,38.71"/>
    </edge>
    <edge id=":V0008_2" function="internal">
        <lane id=":V0008_2_0" index="0" speed="9.11" length="33.00" shape="29.70,39.69 20.20,30.47 13.99,27.24 11.04,29.98 11.37,38.71"/>
        <lane id=":V0008_2_1" index="1" speed="10.60" length="45.27" shape="32.06,37.53 19.48,25.47 11.31,21.74 7.56,26.33 8.22,39.24"/>
    </edge>
    <edge id=":V0008_4" function="internal">
        <lane id=":V0008_4_0" index="0" speed="9.42" length="32.39" shape="26.23,25.27 17.98,20.72 12.75,21.44 10.55,27.44 11.37,38.71"/>
        <lane id=":V0008_4_1" index="1" speed="10.68" length="42.09" shape="28.13,22.70 17.17,16.58 10.20,17.30 7.22,24.85 8.22,39.24"/>
    </edge>
    <edge id=":V0008_6" function="internal">
        <lane id=":V0008_6_0" index="0" speed="10.21" length="31.77" shape="26.24,15.71 19.41,15.39 15.18,19.03 13.56,26.63 14.53,38.17"/>
        <lane id=":V0008_6_1" index="1" speed="11.23" length="38.74" shape="27.10,12.63 18.20,12.03 12.61,16.17 10.34,25.06 11.37,38.71"/>
        <lane id=":V0008_6_2" index="2" speed="12.17" length="45.75" shape="27.97,9.55 17.00,8.66 10.05,13.31 7.12,23.50 8.22,39.24"/>
    </edge>
    <edge id=":V0009_0" function="internal">
        <lane id=":V0009_0_0" index="0" speed="3.43" length="3.66" shape="174.91,960.23 175.55,959.03 175.69,958.58 175.34,958.89 174.48,959.95"/>
    </edge>
    <edge id=":V0009_1" function="internal">
        <lane id=":V0009_1_0" index="0" speed="5.53" length="11.39" shape="174.91,960.23 172.52,964.83 171.60,967.62 172.13,968.59 174.11,967.75"/>
    </edge>
    <edge id=":V0009_2" function="internal">
        <lane id=":V0009_2_0" index="0" speed="5.11" length="8.13" shape="169.36,959.15 170.07,961.50 171.16,962.41 172.63,961.90 174.48,959.95"/>
    </edge>
    <edge id=":V0009_3" function="internal">
        <lane id=":V0009_3_0" index="0" speed="7.70" length="17.11" shape="163.05,960.21 164.58,965.64 166.93,968.71 170.11,969.41 174.11,967.75"/>
    </edge>
    <edge id=":V0010_0" function="internal">
        <lane id=":V0010_0_0" index="0" speed="5.76" length="13.05" shape="584.55,654.90 588.84,656.63 590.74,656.58 590.24,654.75 587.34,651.15"/>
        <lane id=":V0010_0_1" index="1" speed="8.48" length="30.57" shape="583.17,657.79 593.23,661.84 597.67,661.72 596.50,657.44 589.70,648.99"/>
    </edge>
    <edge id=":V0010_2" function="internal">
        <lane id=":V0010_2_0" index="0" speed="13.48" length="38.70" shape="581.80,660.68 596.47,667.26 607.41,671.23 614.60,672.59 618.05,671.34"/>
    </edge>
    <edge id=":V0010_3" function="internal">
        <lane id=":V0010_3_0" index="0" speed="12.87" length="43.28" shape="615.42,683.17 615.10,680.20 610.71,673.52 602.24,663.11 589.70,648.99"/>
    </edge>
    <edge id=":V0010_4" function="internal">
        <lane id=":V0010_4_0" index="0" speed="13.00" length="12.06" shape="615.42,683.17 617.15,680.90 617.11,678.17 616.88,674.98 618.05,671.34"/>
        <lane id=":V0010_4_1" index="1" speed="13.00" length="12.06" shape="615.42,683.17 617.60,681.13 618.54,678.91 619.25,676.28 620.77,673.02"/>
        <lane id=":V0010_4_2" index="2" speed="13.00" length="12.06" shape="615.42,683.17 618.02,681.40 619.88,679.79 621.52,677.74 623.49,674.70"/>
    </edge>
    <edge id=":V0011_0" function="internal">
        <lane id=":V0011_0_0" index="0" speed="18.50" length="26.84" shape="329.90,327.99 327.75,324.12 324.52,319.19 320.68,312.78 316.72,304.52"/>
        <lane id=":V0011_0_1" index="1" speed="18.50" length="26.84" shape="329.90,327.99 319.67,303.29"/>
    </edge>
    <edge id=":V0011_2" function="internal">
        <lane id=":V0011_2_0" index="0" speed="5.47" length="4.17" shape="329.90,327.99 329.03,325.00 329.28,323.98"/>
    </edge>
    <edge id=":V0011_7" function="internal">
        <lane id=":V0011_7_0" index="0" speed="5.47" length="5.58" shape="329.28,323.98 329.45,323.29 331.16,322.87 334.15,323.75"/>
    </edge>
    <edge id=":V0011_3" function="internal">
        <lane id=":V0011_3_0" index="0" speed="5.47" length="9.75" shape="309.50,309.99 312.49,310.86 314.20,310.44 314.62,308.74 313.76,305.74"/>
        <lane id=":V0011_3_1" index="1" speed="7.42" length="19.34" shape="308.27,312.94 314.21,314.67 317.59,313.85 318.43,310.46 316.72,304.52"/>
    </edge>
    <edge id=":V0011_5" function="internal">
        <lane id=":V0011_5_0" index="0" speed="10.00" length="28.15" shape="308.27,312.94 315.10,315.25 321.83,316.87 328.55,318.48 335.38,320.79"/>
        <lane id=":V0011_5_1" index="1" speed="10.00" length="28.15" shape="308.27,312.94 334.15,323.75"/>
    </edge>
    <edge id=":V0012_0" function="internal">
        <lane id=":V0012_0_0" index="0" speed="5.53" length="9.47" shape="361.61,473.87 358.80,474.73 357.58,476.04 357.95,477.79 359.91,479.98"/>
    </edge>
    <edge id=":V0012_1" function="internal">
        <lane id=":V0012_1_0" index="0" speed="22.50" length="17.24" shape="361.61,473.87 344.64,476.88"/>
        <lane id=":V0012_1_1" index="1" speed="22.50" length="17.24" shape="361.06,470.72 344.08,473.73"/>
    </edge>
    <edge id=":V0012_3" function="internal">
        <lane id=":V0012_3_0" index="0" speed="15.50" length="18.77" shape="345.78,467.62 359.91,479.98"/>
    </edge>
    <edge id=":V0012_4" function="internal">
        <lane id=":V0012_4_0" index="0" speed="5.53" length="9.47" shape="345.78,467.62 347.75,469.81 348.12,471.56 346.90,472.87 344.08,473.73"/>
    </edge>
    <edge id=":V0013_0" function="internal">
        <lane id=":V0013_0_0" index="0" speed="16.00" length="27.12" shape="148.42,225.85 133.12,203.45"/>
        <lane id=":V0013_0_1" index="1" speed="16.00" length="27.12" shape="151.06,224.04 135.76,201.64"/>
    </edge>
    <edge id=":V0013_2" function="internal">
        <lane id=":V0013_2_0" index="0" speed="5.49" length="9.64" shape="151.06,224.04 149.64,221.34 149.71,219.57 151.27,218.75 154.32,218.86"/>
    </edge>
    <edge id=":V0013_3" function="internal">
        <lane id=":V0013_3_0" index="0" speed="5.49" length="9.64" shape="129.86,208.63 132.91,208.74 134.47,207.92 134.54,206.15 133.12,203.45"/>
    </edge>
    <edge id=":V0013_4" function="internal">
        <lane id=":V0013_4_0" index="0" speed="17.50" length="25.97" shape="129.37,211.79 137.98,213.62 144.80,215.78 150.14,217.71 154.32,218.86"/>
    </edge>
    <edge id=":V0014_0" function="internal">
        <lane id=":V0014_0_0" index="0" speed="6.19" length="9.05" shape="390.20,658.80 392.20,660.37 394.13,660.82 396.01,660.17 397.82,658.39"/>
        <lane id=":V0014_0_1" index="1" speed="7.75" length="14.82" shape="387.88,661.00 391.15,663.57 394.31,664.32 397.39,663.24 400.36,660.34"/>
    </edge>
    <edge id=":V0014_2" function="internal">
        <lane id=":V0014_2_0" index="0" speed="18.50" length="18.73" shape="387.88,661.00 400.78,674.58"/>
    </edge>
    <edge id=":V0014_3" function="internal">
        <lane id=":V0014_3_0" index="0" speed="24.00" length="16.19" shape="393.16,674.98 394.87,671.93 396.04,668.60 397.57,664.80 400.36,660.34"/>
        <lane id=":V0014_3_1" index="1" speed="24.00" length="16.19" shape="393.16,674.98 402.90,662.29"/>
    </edge>
    <edge id=":V0014_5" function="internal">
        <lane id=":V0014_5_0" index="0" speed="6.19" length="9.05" shape="393.16,674.98 394.98,673.21 396.85,672.55 398.79,673.01 400.78,674.58"/>
    </edge>
    <edge id=":V0015_0" function="internal">
        <lane id=":V0015_0_0" index="0" speed="7.09" length="11.51" shape="400.35,561.10 398.80,564.56 398.43,567.39 399.25,569.58 401.24,571.13"/>
    </edge>
    <edge id=":V0015_1" function="internal">
        <lane id=":V0015_1_0" index="0" speed="22.50" length="14.23" shape="400.35,561.10 393.36,573.48"/>
    </edge>
    <edge id=":V0015_2" function="internal">
        <lane id=":V0015_2_0" index="0" speed="19.00" length="9.55" shape="394.66,564.45 396.88,566.06 397.95,567.79 399.02,569.52 401.24,571.13"/>
        <lane id=":V0015_2_1" index="1" speed="19.00" length="9.55" shape="393.28,567.34 395.50,568.95 396.57,570.68 397.64,572.41 399.86,574.02"/>
    </edge>
    <edge id=":V0015_4" function="internal">
        <lane id=":V0015_4_0" index="0" speed="4.56" length="4.11" shape="391.91,570.23 392.97,570.90 393.57,571.66 393.69,572.52 393.36,573.48"/>
    </edge>
    <edge id=":V0016_0" function="internal">
        <lane id=":V0016_0_0" index="0" speed="11.90" length="12.79" shape="356.25,530.19 354.21,526.96 352.64,524.69 350.58,523.14 347.11,522.07"/>
    </edge>
    <edge id=":V0016_1" function="internal">
        <lane id=":V0016_1_0" index="0" speed="16.00" length="15.68" shape="358.90,528.39 350.05,515.44"/>
    </edge>
    <edge id=":V0016_2" function="internal">
        <lane id=":V0016_2_0" index="0" speed="8.00" length="14.38" shape="361.21,524.89 347.11,522.07"/>
        <lane id=":V0016_2_1" index="1" speed="8.00" length="14.38" shape="361.84,521.75 347.74,518.94"/>
    </edge>
    <edge id=":V0016_4" function="internal">
        <lane id=":V0016_4_0" index="0" speed="10.00" length="13.82" shape="361.84,521.75 357.63,520.79 354.54,519.65 352.16,517.98 350.05,515.44"/>
    </edge>
    <edge id=":V0017_0" function="internal">
        <lane id=":V0017_0_0" index="0" speed="7.20" length="8.92" shape="158.68,122.79 156.89,121.92 154.92,121.83 152.79,122.52 150.49,123.99"/>
    </edge>
    <edge id=":V0017_1" function="internal">
        <lane id=":V0017_1_0" index="0" speed="18.00" length="12.70" shape="158.68,122.79 148.45,115.26"/>
        <lane id=":V0017_1_1" index="1" speed="18.00" length="12.70" shape="160.57,120.21 150.34,112.68"/>
    </edge>
    <edge id=":V0017_3" function="internal">
        <lane id=":V0017_3_0" index="0" speed="10.00" length="13.84" shape="159.27,113.11 157.01,115.50 155.47,118.09 153.64,120.91 150.49,123.99"/>
        <lane id=":V0017_3_1" index="1" speed="10.00" length="13.84" shape="159.27,113.11 148.53,121.46"/>
    </edge>
    <edge id=":V0017_5" function="internal">
        <lane id=":V0017_5_0" index="0" speed="7.47" length="9.67" shape="159.27,113.11 157.19,114.26 155.01,114.58 152.73,114.05 150.34,112.68"/>
    </edge>
    <edge id=":V0018_0" function="internal">
        <lane id=":V0018_0_0" index="0" speed="7.90" length="11.82" shape="481.93,760.01 483.81,761.18 486.24,761.30 489.23,760.39 492.78,758.44"/>
    </edge>
    <edge id=":V0018_1" function="internal">
        <lane id=":V0018_1_0" index="0" speed="19.50" length="13.97" shape="481.93,760.01 484.54,762.03 487.29,763.33 490.31,764.91 493.72,767.78"/>
        <lane id=":V0018_1_1" index="1" speed="19.50" length="13.97" shape="481.93,760.01 491.40,769.98"/>
    </edge>
    <edge id=":V0018_3" function="internal">
        <lane id=":V0018_3_0" index="0" speed="6.50" length="13.97" shape="482.96,768.58 485.43,766.39 487.22,763.93 489.33,761.26 492.78,758.44"/>
        <lane id=":V0018_3_1" index="1" speed="6.50" length="13.97" shape="482.96,768.58 494.51,761.13"/>
    </edge>
    <edge id=":V0018_5" function="internal">
        <lane id=":V0018_5_0" index="0" speed="7.10" length="9.40" shape="482.96,768.58 485.14,767.60 487.27,767.51 489.36,768.30 491.40,769.98"/>
    </edge>
    <edge id=":V0019_0" function="internal">
        <lane id=":V0019_0_0" index="0" speed="6.55" length="7.80" shape="459.22,515.41 457.62,514.07 455.91,513.46 454.10,513.56 452.19,514.39"/>
    </edge>
    <edge id=":V0019_1" function="internal">
        <lane id=":V0019_1_0" index="0" speed="18.50" length="12.35" shape="461.58,513.25 459.44,510.16 458.50,507.50 457.70,504.99 455.99,502.37"/>
    </edge>
    <edge id=":V0019_2" function="internal">
        <lane id=":V0019_2_0" index="0" speed="6.00" length="15.91" shape="463.99,503.53 461.31,505.73 459.06,508.37 456.33,511.31 452.19,514.39"/>
        <lane id=":V0019_2_1" index="1" speed="6.00" length="15.91" shape="463.99,503.53 450.54,511.65"/>
    </edge>
    <edge id=":V0019_4" function="internal">
        <lane id=":V0019_4_0" index="0" speed="6.95" length="8.88" shape="463.99,503.53 461.81,504.47 459.75,504.59 457.81,503.89 455.99,502.37"/>
    </edge>
    <edge id=":V0020_0" function="internal">
        <lane id=":V0020_0_0" index="0" speed="13.50" length="23.73" shape="175.93,266.13 162.55,246.53"/>
        <lane id=":V0020_0_1" index="1" speed="13.50" length="23.73" shape="178.57,264.32 165.19,244.73"/>
    </edge>
    <edge id=":V0020_2" function="internal">
        <lane id=":V0020_2_0" index="0" speed="5.49" length="4.19" shape="178.57,264.32 176.79,261.15 176.78,260.59"/>
    </edge>
    <edge id=":V0020_5" function="internal">
        <lane id=":V0020_5_0" index="0" speed="5.49" length="6.57" shape="176.78,260.59 176.76,259.41 178.48,259.08 181.94,260.18"/>
    </edge>
    <edge id=":V0020_3" function="internal">
        <lane id=":V0020_3_0" index="0" speed="5.49" length="10.76" shape="159.17,250.67 162.64,251.77 164.35,251.45 164.32,249.70 162.55,246.53"/>
    </edge>
    <edge id=":V0020_4" function="internal">
        <lane id=":V0020_4_0" index="0" speed="5.50" length="24.68" shape="159.17,250.67 181.94,260.18"/>
    </edge>
    <edge id=":V0021_0" function="internal">
        <lane id=":V0021_0_0" index="0" speed="8.21" length="12.52" shape="385.66,479.41 383.72,475.46 381.71,472.76 379.62,471.29 377.44,471.06"/>
        <lane id=":V0021_0_1" index="1" speed="9.44" length="16.84" shape="388.61,478.19 386.09,473.23 383.30,469.86 380.23,468.09 376.88,467.91"/>
    </edge>
    <edge id=":V0021_2" function="internal">
        <lane id=":V0021_2_0" index="0" speed="10.00" length="17.86" shape="391.57,476.97 389.09,472.27 386.71,469.42 384.34,466.56 381.85,461.86"/>
        <lane id=":V0021_2_1" index="1" speed="10.00" length="17.86" shape="391.57,476.97 384.81,460.64"/>
    </edge>
    <edge id=":V0021_4" function="internal">
        <lane id=":V0021_4_0" index="0" speed="21.50" length="17.36" shape="394.70,471.25 389.62,471.64 386.07,471.15 382.53,470.67 377.44,471.06"/>
        <lane id=":V0021_4_1" index="1" speed="21.50" length="17.36" shape="394.14,468.10 389.06,468.49 385.51,468.00 381.97,467.52 376.88,467.91"/>
    </edge>
    <edge id=":V0021_6" function="internal">
        <lane id=":V0021_6_0" index="0" speed="7.63" length="10.68" shape="393.58,464.94 390.59,465.11 388.13,464.45 386.21,462.96 384.81,460.64"/>
    </edge>
    <edge id=":V0022_0" function="internal">
        <lane id=":V0022_0_0" index="0" speed="12.00" length="22.08" shape="290.28,249.03 288.31,242.97 287.69,238.58 287.06,234.19 285.09,228.12"/>
        <lane id=":V0022_0_1" index="1" speed="12.00" length="22.08" shape="290.28,249.03 288.74,242.68 289.16,237.97 289.59,233.25 288.05,226.90"/>
    </edge>
    <edge id=":V0022_2" function="internal">
        <lane id=":V0022_2_0" index="0" speed="7.40" length="16.96" shape="293.24,247.81 291.92,242.87 292.74,239.61 295.71,238.03 300.83,238.14"/>
        <lane id=":V0022_2_1" index="1" speed="5.65" length="9.26" shape="296.20,246.58 295.47,243.88 295.92,242.10 297.55,241.24 300.34,241.30"/>
    </edge>
    <edge id=":V0022_4" function="internal">
        <lane id=":V0022_4_0" index="0" speed="5.65" length="9.26" shape="277.99,234.63 280.78,234.69 282.40,233.83 282.85,232.05 282.13,229.35"/>
    </edge>
    <edge id=":V0022_5" function="internal">
        <lane id=":V0022_5_0" index="0" speed="10.50" length="23.11" shape="277.99,234.63 300.83,238.14"/>
        <lane id=":V0022_5_1" index="1" speed="10.50" length="23.11" shape="277.50,237.79 300.34,241.30"/>
    </edge>
    <edge id=":V0023_0" function="internal">
        <lane id=":V0023_0_0" index="0" speed="10.55" length="17.21" shape="330.01,486.08 328.19,484.94 324.79,484.50 319.81,484.75 313.23,485.71"/>
    </edge>
    <edge id=":V0023_1" function="internal">
        <lane id=":V0023_1_0" index="0" speed="11.00" length="19.12" shape="330.01,486.08 327.13,483.65 323.15,481.71 318.65,479.02 314.24,474.35"/>
        <lane id=":V0023_1_1" index="1" speed="11.00" length="19.12" shape="330.01,486.08 327.52,483.32 324.38,480.68 320.78,477.36 316.89,472.54"/>
        <lane id=":V0023_1_2" index="2" speed="11.00" length="19.12" shape="330.01,486.08 319.53,470.74"/>
    </edge>
    <edge id=":V0023_4" function="internal">
        <lane id=":V0023_4_0" index="0" speed="17.00" length="18.58" shape="330.97,479.31 312.67,482.56"/>
        <lane id=":V0023_4_1" index="1" speed="17.00" length="18.58" shape="330.41,476.16 312.11,479.41"/>
    </edge>
    <edge id=":V0023_6" function="internal">
        <lane id=":V0023_6_0" index="0" speed="9.81" length="14.80" shape="330.41,476.16 325.87,476.59 322.10,476.13 319.11,474.78 316.89,472.54"/>
        <lane id=":V0023_6_1" index="1" speed="9.19" length="12.90" shape="330.41,476.16 327.33,476.25 324.49,475.37 321.89,473.54 319.53,470.74"/>
    </edge>
    <edge id=":V0024_0" function="internal">
        <lane id=":V0024_0_0" index="0" speed="10.50" length="11.90" shape="280.74,425.29 279.16,422.08 278.75,419.54 278.35,417.00 276.77,413.79"/>
        <lane id=":V0024_0_1" index="1" speed="10.50" length="11.90" shape="282.92,422.80 281.47,419.80 281.17,417.40 280.87,415.01 279.42,412.00"/>
    </edge>
    <edge id=":V0024_2" function="internal">
        <lane id=":V0024_2_0" index="0" speed="8.72" length="34.20" shape="283.74,409.08 273.81,401.06 269.33,399.18 270.32,403.42 276.77,413.79"/>
        <lane id=":V0024_2_1" index="1" speed="4.54" length="7.76" shape="281.00,410.93 278.75,409.11 277.73,408.69 277.96,409.65 279.42,412.00"/>
    </edge>
    <edge id=":V0024_4" function="internal">
        <lane id=":V0024_4_0" index="0" speed="15.00" length="9.26" shape="281.00,410.93 287.97,417.03"/>
    </edge>
    <edge id=":V0025_0" function="internal">
        <lane id=":V0025_0_0" index="0" speed="7.07" length="11.36" shape="106.70,164.76 104.32,161.90 101.98,160.36 99.67,160.14 97.40,161.23"/>
    </edge>
    <edge id=":V0025_1" function="internal">
        <lane id=":V0025_1_0" index="0" speed="15.50" length="14.41" shape="106.70,164.76 98.57,152.86"/>
        <lane id=":V0025_1_1" index="1" speed="15.50" length="14.41" shape="109.35,162.96 101.22,151.05"/>
    </edge>
    <edge id=":V0025_3" function="internal">
        <lane id=":V0025_3_0" index="0" speed="5.00" length="15.04" shape="110.90,154.79 106.85,157.30 103.42,158.58 100.35,159.58 97.40,161.23"/>
    </edge>
    <edge id=":V0025_4" function="internal">
        <lane id=":V0025_4_0" index="0" speed="6.38" length="9.04" shape="108.93,152.26 106.76,153.50 104.75,153.71 102.91,152.90 101.22,151.05"/>
    </edge>
    <edge id=":V0026_0" function="internal">
        <lane id=":V0026_0_0" index="0" speed="6.60" length="7.20" shape="368.61,630.31 367.90,632.07 367.79,633.76 368.30,635.38 369.42,636.92"/>
        <lane id=":V0026_0_1" index="1" speed="8.11" length="11.31" shape="365.82,628.73 364.70,631.51 364.54,634.17 365.34,636.70 367.10,639.12"/>
    </edge>
    <edge id=":V0026_2" function="internal">
        <lane id=":V0026_2_0" index="0" speed="19.00" length="10.65" shape="363.04,627.16 357.80,636.44"/>
    </edge>
    <edge id=":V0026_3" function="internal">
        <lane id=":V0026_3_0" index="0" speed="13.50" length="15.19" shape="356.79,628.26 359.47,630.36 362.42,631.87 365.71,633.73 369.42,636.92"/>
        <lane id=":V0026_3_1" index="1" speed="13.50" length="15.19" shape="356.79,628.26 367.10,639.12"/>
    </edge>
    <edge id=":V0026_5" function="internal">
        <lane id=":V0026_5_0" index="0" speed="7.26" length="8.90" shape="356.79,628.26 358.17,630.17 358.80,632.16 358.68,634.25 357.80,636.44"/>
    </edge>
    <edge id=":V0027_0" function="internal">
        <lane id=":V0027_0_0" index="0" speed="9.70" length="17.90" shape="442.45,590.76 447.69,592.68 452.17,593.09 455.89,591.99 458.85,589.38"/>
    </edge>
    <edge id=":V0027_1" function="internal">
        <lane id=":V0027_1_0" index="0" speed="17.50" length="18.58" shape="442.45,590.76 447.62,592.67 451.42,593.26 455.22,593.85 460.39,595.76"/>
        <lane id=":V0027_1_1" index="1" speed="17.50" length="18.58" shape="441.08,593.65 446.24,595.56 450.04,596.15 453.84,596.74 459.01,598.65"/>
        <lane id=":V0027_1_2" index="2" speed="17.50" length="18.58" shape="441.08,593.65 457.63,601.54"/>
    </edge>
    <edge id=":V0027_4" function="internal">
        <lane id=":V0027_4_0" index="0" speed="13.00" length="19.64" shape="442.61,600.03 447.22,595.67 451.81,593.30 455.86,591.63 458.85,589.38"/>
    </edge>
    <edge id=":V0027_5" function="internal">
        <lane id=":V0027_5_0" index="0" speed="9.08" length="15.61" shape="445.15,601.98 448.11,599.04 451.41,597.51 455.04,597.38 459.01,598.65"/>
        <lane id=":V0027_5_1" index="1" speed="7.77" length="11.20" shape="447.69,603.93 449.81,601.82 452.18,600.72 454.78,600.63 457.63,601.54"/>
    </edge>
    <edge id=":V0028_0" function="internal">
        <lane id=":V0028_0_0" index="0" speed="16.00" length="24.37" shape="386.76,574.87 373.02,554.74"/>
        <lane id=":V0028_0_1" index="1" speed="16.00" length="24.37" shape="389.41,573.06 375.66,552.94"/>
    </edge>
    <edge id=":V0028_2" function="internal">
        <lane id=":V0028_2_0" index="0" speed="6.23" length="2.28" shape="389.41,573.06 388.27,571.09"/>
        <lane id=":V0028_2_1" index="1" speed="4.82" length="2.27" shape="389.41,573.06 388.28,571.10"/>
    </edge>
    <edge id=":V0028_8" function="internal">
        <lane id=":V0028_8_0" index="0" speed="6.23" length="12.44" shape="388.27,571.09 386.77,568.50 386.50,566.00 388.61,565.59 393.10,567.26"/>
    </edge>
    <edge id=":V0028_9" function="internal">
        <lane id=":V0028_9_0" index="0" speed="4.82" length="5.78" shape="388.28,571.10 388.02,570.65 387.95,569.35 389.18,569.19 391.73,570.15"/>
    </edge>
    <edge id=":V0028_4" function="internal">
        <lane id=":V0028_4_0" index="0" speed="5.73" length="12.18" shape="370.63,560.10 374.14,561.36 375.71,560.89 375.33,558.69 373.02,554.74"/>
    </edge>
    <edge id=":V0028_5" function="internal">
        <lane id=":V0028_5_0" index="0" speed="24.50" length="23.80" shape="370.63,560.10 374.72,560.94 380.14,561.08 386.77,561.80 394.48,564.37"/>
        <lane id=":V0028_5_1" index="1" speed="24.50" length="23.80" shape="370.63,560.10 374.55,561.41 379.56,562.58 385.73,564.30 393.10,567.26"/>
        <lane id=":V0028_5_2" index="2" speed="24.50" length="23.80" shape="370.63,560.10 391.73,570.15"/>
    </edge>
    <edge id=":V0029_0" function="internal">
        <lane id=":V0029_0_0" index="0" speed="18.00" length="17.79" shape="277.26,217.58 275.35,212.65 273.86,209.24 271.68,206.37 267.69,203.06"/>
        <lane id=":V0029_0_1" index="1" speed="18.00" length="19.54" shape="280.22,216.36 278.10,210.95 276.42,207.23 273.98,204.11 269.59,200.48"/>
    </edge>
    <edge id=":V0029_2" function="internal">
        <lane id=":V0029_2_0" index="0" speed="17.00" length="19.95" shape="283.17,215.13 280.45,209.86 277.91,206.60 275.37,203.34 272.65,198.08"/>
        <lane id=":V0029_2_1" index="1" speed="17.00" length="19.95" shape="283.17,215.13 275.61,196.86"/>
    </edge>