<nodes><node id="V0001" x="243.30200000000002" y="258.992" type="priority" /><node id="V0002" x="785.7666666666667" y="485.5293333333333" type="priority" /><node id="V0003" x="428.4313333333333" y="548.9753333333333" type="priority" /><node id="V0004" x="1043.2933333333333" y="381.94533333333334" type="priority" /><node id="V0005" x="617.89" y="586.7693333333334" type="priority" /><node id="V0006" x="821.8" y="963.1133333333333" type="priority" /><node id="V0007" x="424.004" y="118.42800000000001" type="priority" /><node id="V0008" x="202.28466666666665" y="55.9262" type="priority" /><node id="V0009" x="366.3846666666667" y="1032.0333333333333" type="priority" /><node id="V0010" x="823.5933333333334" y="737.2" type="priority" /><node id="V0011" x="532.1286666666667" y="379.608" type="priority" /><node id="V0012" x="550.0253333333333" y="527.3853333333333" type="priority" /><node id="V0013" x="352.40999999999997" y="275.7613333333333" type="priority" /><node id="V0014" x="599.1513333333334" y="728.7066666666667" type="priority" /><node id="V0015" x="594.5453333333334" y="628.098" type="priority" /><node id="V0016" x="556.4226666666667" y="574.5073333333333" type="priority" /><node id="V0017" x="357.46866666666665" y="170.18400000000003" type="priority" /><node id="V0018" x="689.4066666666666" y="823.7266666666667" type="priority" /><node id="V0019" x="662.0939999999999" y="560.1113333333334" type="priority" /><node id="V0020" x="379.9193333333333" y="316.04466666666667" type="priority" /><node id="V0021" x="590.3426666666667" y="520.2273333333334" type="priority" /><node id="V0022" x="498.428" y="298.2033333333333" type="priority" /><node id="V0023" x="527.0313333333334" y="531.4680000000001" type="priority" /><node id="V0024" x="485.96133333333336" y="471.32733333333334" type="priority" /><node id="V0025" x="307.0793333333333" y="209.38133333333332" type="priority" /><node id="V0026" x="560.6253333333333" y="688.1466666666668" type="priority" /><node id="V0027" x="654.4599999999999" y="656.6360000000001" type="priority" /><node id="V0028" x="592.284" y="627.0213333333334" type="priority" /><node id="V0029" x="483.99666666666667" y="263.344" type="priority" /><node id="V0030" x="715.24" y="807.0666666666667" type="priority" /><node id="V0031" x="698.1733333333334" y="599.6726666666667" type="priority" /><node id="V0032" x="476.1633333333333" y="356.2366666666667" type="priority" /><node id="V0033" x="560.9333333333333" y="449.188" type="priority" /><node id="V0034" x="620.7900000000001" y="514.8213333333333" type="priority" /><node id="V0035" x="410.98066666666665" y="284.7633333333333" type="priority" /><node id="V0036" x="540.0260000000001" y="304.59666666666664" type="priority" /><node id="V0037" x="327.644" y="193.38400000000001" type="priority" /><node id="V0038" x="593.8546666666666" y="629.3206666666666" type="priority" /><node id="V0039" x="632.2620000000001" y="685.56" type="priority" /></nodes>