<configuration><input><net-file value="19.net.xml" /><route-files value="19.rou.xml" /></input><time><begin value="0" /></time></configuration>